
  EPA STORM WATER MANAGEMENT MODEL - VERSION 5.1 (Build 5.1.015)
  --------------------------------------------------------------

  
  *********************************************************
  NOTE: The summary statistics displayed in this report are
  based on results found at every computational time step,  
  not just on results from each reporting time step.
  *********************************************************
  
  ****************
  Analysis Options
  ****************
  Flow Units ............... LPS
  Process Models:
    Rainfall/Runoff ........ YES
    RDII ................... NO
    Snowmelt ............... NO
    Groundwater ............ NO
    Flow Routing ........... YES
    Ponding Allowed ........ YES
    Water Quality .......... NO
  Infiltration Method ...... HORTON
  Flow Routing Method ...... DYNWAVE
  Surcharge Method ......... EXTRAN
  Starting Date ............ 10/12/2020 00:00:00
  Ending Date .............. 10/12/2020 06:00:00
  Antecedent Dry Days ...... 0.0
  Report Time Step ......... 00:01:00
  Wet Time Step ............ 00:01:00
  Dry Time Step ............ 00:30:00
  Routing Time Step ........ 60.00 sec
  Variable Time Step ....... YES
  Maximum Trials ........... 8
  Number of Threads ........ 1
  Head Tolerance ........... 0.001500 m
  
  
  **************************        Volume         Depth
  Runoff Quantity Continuity     hectare-m            mm
  **************************     ---------       -------
  Initial LID Storage ......         0.026         3.763
  Total Precipitation ......         0.831       120.663
  Evaporation Loss .........         0.000         0.000
  Infiltration Loss ........         0.276        40.112
  Surface Runoff ...........         0.254        36.900
  Final Storage ............         0.327        47.480
  Continuity Error (%) .....        -0.054
  
  
  **************************        Volume        Volume
  Flow Routing Continuity        hectare-m      10^6 ltr
  **************************     ---------     ---------
  Dry Weather Inflow .......         0.000         0.000
  Wet Weather Inflow .......         0.254         2.538
  Groundwater Inflow .......         0.000         0.000
  RDII Inflow ..............         0.000         0.000
  External Inflow ..........         0.000         0.000
  External Outflow .........         0.252         2.523
  Flooding Loss ............         0.000         0.000
  Evaporation Loss .........         0.000         0.000
  Exfiltration Loss ........         0.000         0.000
  Initial Stored Volume ....         0.000         0.000
  Final Stored Volume ......         0.001         0.013
  Continuity Error (%) .....         0.074
  
  
  *************************
  Highest Continuity Errors
  *************************
  Node 35 (1.10%)
  
  
  ***************************
  Time-Step Critical Elements
  ***************************
  Link 64 (104.63%)
  
  
  ********************************
  Highest Flow Instability Indexes
  ********************************
  All links are stable.
  
  
  *************************
  Routing Time Step Summary
  *************************
  Minimum Time Step           :     2.06 sec
  Average Time Step           :     7.22 sec
  Maximum Time Step           :    60.00 sec
  Percent in Steady State     :     6.16
  Average Iterations per Step :     2.21
  Percent Not Converging      :     1.64
  Time Step Frequencies       :
     60.000 - 23.031 sec      :     1.50 %
     23.031 -  8.841 sec      :    24.43 %
      8.841 -  3.393 sec      :    57.26 %
      3.393 -  1.303 sec      :    16.81 %
      1.303 -  0.500 sec      :     0.00 %
  
  
  ***************************
  Subcatchment Runoff Summary
  ***************************
  
  ------------------------------------------------------------------------------------------------------------------------------
                            Total      Total      Total      Total     Imperv       Perv      Total       Total     Peak  Runoff
                           Precip      Runon       Evap      Infil     Runoff     Runoff     Runoff      Runoff   Runoff   Coeff
  Subcatchment                 mm         mm         mm         mm         mm         mm         mm    10^6 ltr      LPS
  ------------------------------------------------------------------------------------------------------------------------------
  67                       120.66       0.00       0.00      57.93     100.84      30.47      30.47        0.17   118.13   0.252
  68                       120.66       0.00       0.00      27.07      74.11      17.53      17.53        0.18    68.84   0.145
  69                       120.66       0.00       0.00      52.05      90.85       6.20       6.20        0.01    25.06   0.051
  70                       120.66       0.00       0.00      48.28      97.08      14.88      14.88        0.04    38.92   0.123
  71                       120.66       0.00       0.00      80.76     103.83      36.34      36.34        0.09    90.79   0.301
  72                       120.66       0.00       0.00       7.37     106.75      79.28      79.28        0.44   250.16   0.657
  73                       120.66       0.00       0.00      48.99      96.24      11.46      11.46        0.03    35.69   0.095
  74                       120.66       0.00       0.00      69.49     106.27      47.48      47.48        0.18   150.90   0.394
  75                       120.66       0.00       0.00      64.10      96.18      13.34      13.34        0.05    69.37   0.111
  76                       120.66       0.00       0.00       3.87     110.70       2.16     112.86        0.23    97.27   0.935
  77                       120.66       0.00       0.00      10.36      99.91      29.08      29.08        0.12    76.72   0.241
  78                       120.66       0.00       0.00      89.36     101.03      27.89      27.89        0.09   118.56   0.231
  79                       120.66       0.00       0.00      75.96     105.01      41.08      41.08        0.12   113.34   0.340
  80                       120.66       0.00       0.00      31.94     100.70      32.31      32.31        0.19   127.74   0.268
  81                       120.66       0.00       0.00       9.71     101.69      41.29      41.29        0.10    71.45   0.342
  82                       120.66       0.00       0.00       8.46     104.65      63.08      63.08        0.23   159.44   0.523
  83                       120.66       0.00       0.00      86.47      33.33      30.66      30.66        0.08    34.36   0.254
  84                       120.66       0.00       0.00       8.72     104.07      58.76      58.76        0.19   140.98   0.487
  

  ***********************
  LID Performance Summary
  ***********************

  --------------------------------------------------------------------------------------------------------------------
                                         Total      Evap     Infil   Surface    Drain    Initial     Final  Continuity
                                        Inflow      Loss      Loss   Outflow   Outflow   Storage   Storage       Error
  Subcatchment      LID Control             mm        mm        mm        mm        mm        mm        mm           %
  --------------------------------------------------------------------------------------------------------------------
  67                2                  1236.96      0.00    955.78    281.26      0.00      0.00      0.00       -0.01
  67                1                  1236.96      0.00     72.15    371.25      0.00     72.00    865.27        0.02
  68                1                   890.26      0.00     63.43     67.84      0.00     72.00    830.95        0.00
  69                2                   610.22      0.00    554.80     55.44      0.00      0.00      0.00       -0.00
  69                1                   610.22      0.00     45.01      0.00      0.00     72.00    637.21       -0.00
  70                2                   899.27      0.00    756.55    142.74      0.00      0.00      0.00       -0.00
  70                1                   899.27      0.00     62.64     75.73      0.00     72.00    832.84        0.01
  71                2                  1769.47      0.00   1224.94    544.54      0.00      0.00      0.00       -0.00
  72                1                  3069.15      0.00    100.59   2149.39      0.00     72.00    891.23       -0.00
  73                2                   847.38      0.00    723.32    124.09      0.00      0.00      0.00       -0.00
  73                1                   847.38      0.00     60.62     33.90      0.00     72.00    824.84        0.00
  74                2                  2737.04      0.00   1619.38   1117.68      0.00      0.00      0.00       -0.00
  75                2                   844.12      0.00    721.20    122.93      0.00      0.00      0.00       -0.00
  75                1                   844.12      0.00     60.48     31.32      0.00     72.00    824.29        0.00
  77                1                  1131.78      0.00     69.60    275.81      0.00     72.00    858.15        0.02
  78                2                  1261.31      0.00    969.13    292.20      0.00      0.00      0.00       -0.00
  79                2                  2132.59      0.00   1385.17    747.43      0.00      0.00      0.00       -0.00
  80                2                  1219.75      0.00    946.21    273.58      0.00      0.00      0.00       -0.00
  80                1                  1219.75      0.00     71.75    355.46      0.00     72.00    864.27        0.02
  81                1                  1352.65      0.00     74.71    479.08      0.00     72.00    870.49        0.03
  82                1                  2007.49      0.00     86.62   1108.53      0.00     72.00    884.00        0.02
  83                2                   691.93      0.00    608.67     83.43      0.00      0.00      0.00       -0.02
  84                1                  1833.68      0.00     83.75    940.36      0.00     72.00    881.21        0.02
  
  ******************
  Node Depth Summary
  ******************
  
  ---------------------------------------------------------------------------------
                                 Average  Maximum  Maximum  Time of Max    Reported
                                   Depth    Depth      HGL   Occurrence   Max Depth
  Node                 Type       Meters   Meters   Meters  days hr:min      Meters
  ---------------------------------------------------------------------------------
  1                    JUNCTION     0.04     0.22    16.42     0  03:08        0.22
  2                    JUNCTION     0.04     0.22    16.54     0  03:06        0.22
  3                    JUNCTION     0.04     0.23    16.63     0  03:05        0.23
  4                    JUNCTION     0.07     0.29    17.01     0  03:04        0.29
  5                    JUNCTION     0.12     0.47    16.13     0  03:12        0.47
  6                    JUNCTION     0.11     0.45    16.13     0  03:12        0.45
  7                    JUNCTION     0.11     0.44    16.14     0  03:12        0.44
  8                    JUNCTION     0.10     0.32    16.45     0  03:08        0.32
  9                    JUNCTION     0.10     0.34    16.59     0  03:07        0.34
  10                   JUNCTION     0.10     0.35    16.68     0  03:06        0.35
  11                   JUNCTION     0.14     0.84    17.53     0  03:05        0.83
  12                   JUNCTION     0.00     0.00    16.95     0  00:00        0.00
  13                   JUNCTION     0.13     0.50    16.08     0  03:12        0.50
  14                   JUNCTION     0.13     0.52    16.06     0  03:11        0.52
  15                   JUNCTION     0.14     0.53    16.04     0  03:11        0.53
  16                   JUNCTION     0.17     0.57    16.00     0  03:12        0.57
  17                   JUNCTION     0.17     0.57    15.96     0  03:11        0.57
  18                   JUNCTION     0.17     0.57    15.91     0  03:11        0.57
  19                   JUNCTION     0.16     0.54    15.79     0  03:11        0.54
  20                   JUNCTION     0.17     0.63    15.70     0  03:12        0.63
  21                   JUNCTION     0.21     0.70    15.68     0  03:12        0.70
  22                   JUNCTION     0.16     0.60    15.70     0  03:13        0.60
  23                   JUNCTION     0.21     0.64    15.57     0  03:12        0.63
  24                   JUNCTION     0.14     0.46    15.82     0  03:08        0.46
  25                   JUNCTION     0.07     0.26    16.69     0  03:07        0.26
  26                   JUNCTION     0.00     0.00    16.95     0  00:00        0.00
  27                   JUNCTION     0.14     0.49    15.90     0  03:07        0.49
  28                   JUNCTION     0.11     0.41    16.65     0  03:07        0.41
  29                   JUNCTION     0.10     0.45    16.34     0  03:13        0.44
  30                   JUNCTION     0.11     0.56    17.21     0  03:12        0.50
  31                   JUNCTION     0.00     0.00    16.34     0  03:13        0.00
  32                   JUNCTION     0.00     0.00    16.54     0  00:00        0.00
  33                   JUNCTION     0.00     0.00    16.73     0  00:00        0.00
  34                   JUNCTION     0.00     0.00    16.95     0  00:00        0.00
  35                   JUNCTION     0.08     0.32    16.81     0  03:05        0.32
  36                   JUNCTION     0.09     0.37    16.67     0  03:07        0.37
  37                   JUNCTION     0.09     0.30    16.41     0  03:11        0.29
  38                   JUNCTION     0.05     0.19    16.41     0  03:11        0.19
  39                   JUNCTION     0.05     0.14    16.68     0  03:11        0.14
  40                   JUNCTION     0.08     0.35    17.03     0  03:07        0.35
  41                   JUNCTION     0.00     0.00    16.95     0  00:00        0.00
  42                   JUNCTION     0.00     0.00    16.95     0  00:00        0.00
  43                   JUNCTION     0.00     0.00    16.95     0  00:00        0.00
  44                   JUNCTION     0.00     0.00    16.95     0  00:00        0.00
  45                   JUNCTION     0.00     0.00    16.95     0  00:00        0.00
  46                   JUNCTION     0.00     0.00    16.95     0  00:00        0.00
  49                   JUNCTION     0.07     0.30    17.15     0  03:04        0.30
  50                   JUNCTION     0.07     0.21    17.01     0  03:06        0.21
  51                   JUNCTION     0.01     0.11    16.51     0  03:03        0.11
  52                   JUNCTION     0.04     0.14    16.54     0  03:05        0.14
  53                   JUNCTION     0.04     0.26    17.11     0  03:05        0.26
  54                   JUNCTION     0.16     1.20    18.00     0  03:04        1.20
  55                   JUNCTION     0.03     0.15    16.95     0  03:05        0.15
  56                   JUNCTION     0.06     0.30    16.70     0  03:05        0.30
  57                   JUNCTION     0.03     0.19    16.79     0  03:04        0.19
  58                   JUNCTION     0.09     0.27    17.07     0  03:03        0.27
  59                   JUNCTION     0.06     0.21    16.88     0  03:15        0.21
  60                   JUNCTION     0.04     0.31    17.11     0  03:05        0.31
  61                   JUNCTION     0.06     0.53    17.38     0  03:12        0.41
  62                   JUNCTION     0.09     0.51    17.31     0  03:12        0.45
  63                   JUNCTION     0.08     1.05    18.00     0  03:10        0.97
  64                   JUNCTION     0.09     0.76    17.61     0  03:03        0.59
  65                   JUNCTION     0.05     0.14    16.81     0  03:09        0.14
  66                   JUNCTION     0.08     0.52    17.37     0  03:05        0.47
  47                   OUTFALL      0.19     0.61    15.53     0  03:12        0.61
  48                   OUTFALL      0.08     0.28    16.37     0  03:11        0.28
  
  
  *******************
  Node Inflow Summary
  *******************
  
  -------------------------------------------------------------------------------------------------
                                  Maximum  Maximum                  Lateral       Total        Flow
                                  Lateral    Total  Time of Max      Inflow      Inflow     Balance
                                   Inflow   Inflow   Occurrence      Volume      Volume       Error
  Node                 Type           LPS      LPS  days hr:min    10^6 ltr    10^6 ltr     Percent
  -------------------------------------------------------------------------------------------------
  1                    JUNCTION      0.00    89.53     0  03:06           0      0.0883      -0.330
  2                    JUNCTION      0.00    90.34     0  03:05           0      0.0878      -0.598
  3                    JUNCTION      0.00    90.20     0  03:05           0      0.0873      -0.493
  4                    JUNCTION      0.00   118.25     0  03:04           0       0.168       0.232
  5                    JUNCTION      0.00   397.41     0  03:11           0       0.617       0.025
  6                    JUNCTION      0.00   296.79     0  03:08           0        0.45       0.030
  7                    JUNCTION      0.00   297.42     0  03:08           0        0.45       0.017
  8                    JUNCTION      0.00   212.98     0  03:07           0       0.361      -0.043
  9                    JUNCTION      0.00   214.92     0  03:06           0        0.36      -0.292
  10                   JUNCTION      0.00   217.13     0  03:05           0       0.358      -0.656
  11                   JUNCTION      0.00   249.40     0  03:05           0       0.437       0.268
  12                   JUNCTION      0.00     0.00     0  00:00           0           0       0.000 ltr
  13                   JUNCTION      0.00   401.07     0  03:12           0       0.629       0.150
  14                   JUNCTION      0.00   426.77     0  03:12           0       0.671       0.083
  15                   JUNCTION      0.00   429.63     0  03:12           0       0.675       0.204
  16                   JUNCTION      0.00   612.08     0  03:09           0        1.11       0.101
  17                   JUNCTION      0.00   630.47     0  03:10           0        1.13       0.155
  18                   JUNCTION      0.00   671.27     0  03:11           0        1.18       0.224
  19                   JUNCTION      0.00   663.72     0  03:11           0        1.18       0.617
  20                   JUNCTION      0.00   435.74     0  03:08           0       0.752       0.303
  21                   JUNCTION      0.00  1071.63     0  03:11           0        1.92       0.130
  22                   JUNCTION      0.00   439.54     0  03:08           0       0.752      -0.000
  23                   JUNCTION      0.00  1132.63     0  03:12           0        2.16       0.077
  24                   JUNCTION      0.00   436.45     0  03:08           0       0.752       0.034
  25                   JUNCTION      0.00   124.16     0  03:05           0       0.214      -0.084
  26                   JUNCTION      0.00     0.00     0  00:00           0           0       0.000 ltr
  27                   JUNCTION      0.00   435.94     0  03:07           0       0.752      -0.034
  28                   JUNCTION      0.00   271.81     0  03:05           0        0.44      -0.195
  29                   JUNCTION      0.00   192.73     0  03:12           0       0.311      -0.056
  30                   JUNCTION      0.00   196.56     0  03:11           0        0.31      -0.133
  31                   JUNCTION      0.00     0.00     0  03:13           0    4.46e-11       0.000 ltr
  32                   JUNCTION      0.00     0.00     0  00:00           0           0       0.000 ltr
  33                   JUNCTION      0.00     0.00     0  00:00           0           0       0.000 ltr
  34                   JUNCTION      0.00     0.00     0  00:00           0           0       0.000 ltr
  35                   JUNCTION      0.00   159.44     0  03:05           0       0.227       1.116
  36                   JUNCTION      0.00   161.40     0  03:06           0       0.225      -0.412
  37                   JUNCTION      0.00   231.02     0  03:10           0       0.371       0.314
  38                   JUNCTION      0.00    33.87     0  03:12           0      0.0787       0.151
  39                   JUNCTION      0.00    34.30     0  03:10           0      0.0788       0.140
  40                   JUNCTION      0.00   141.21     0  03:06           0       0.193      -0.449
  41                   JUNCTION      0.00     0.00     0  00:00           0           0       0.000 ltr
  42                   JUNCTION      0.00     0.00     0  00:00           0           0       0.000 ltr
  43                   JUNCTION      0.00     0.00     0  00:00           0           0       0.000 ltr
  44                   JUNCTION      0.00     0.00     0  00:00           0           0       0.000 ltr
  45                   JUNCTION      0.00     0.00     0  00:00           0           0       0.000 ltr
  46                   JUNCTION      0.00     0.00     0  00:00           0           0       0.000 ltr
  49                   JUNCTION    118.13   118.13     0  03:05       0.168       0.168       0.165
  50                   JUNCTION     68.84    68.84     0  03:06       0.182       0.182      -0.092
  51                   JUNCTION     25.06    25.06     0  03:03      0.0116      0.0117      -1.937
  52                   JUNCTION     38.92    38.92     0  03:04      0.0417      0.0419      -1.533
  53                   JUNCTION     90.79    90.79     0  03:05      0.0863      0.0866      -0.868
  54                   JUNCTION    250.16   250.16     0  03:05       0.437       0.438       0.054
  55                   JUNCTION     35.69    35.69     0  03:04      0.0302      0.0303      -1.950
  56                   JUNCTION    150.90   150.90     0  03:05       0.175       0.175      -0.039
  57                   JUNCTION     69.37    69.37     0  03:04        0.05      0.0503      -1.860
  58                   JUNCTION     97.27    97.27     0  03:03       0.233       0.233       0.061
  59                   JUNCTION     76.72    76.72     0  03:16       0.118       0.118      -0.245
  60                   JUNCTION    118.56   118.56     0  03:04      0.0941      0.0945      -1.375
  61                   JUNCTION    113.34   113.34     0  03:05       0.118       0.118       0.788
  62                   JUNCTION    127.74   127.74     0  03:13       0.194       0.193      -0.308
  63                   JUNCTION     71.45    71.44     0  03:10         0.1      0.0998       1.187
  64                   JUNCTION    159.44   159.44     0  03:05       0.227       0.228       0.099
  65                   JUNCTION     34.36    34.36     0  03:09      0.0788      0.0788      -0.017
  66                   JUNCTION    140.98   140.98     0  03:06       0.193       0.194       0.146
  47                   OUTFALL       0.00  1133.27     0  03:12           0        2.15       0.000
  48                   OUTFALL       0.00   228.07     0  03:11           0        0.37       0.000
  
  
  **********************
  Node Surcharge Summary
  **********************
  
  Surcharging occurs when water rises above the top of the highest conduit.
  ---------------------------------------------------------------------
                                               Max. Height   Min. Depth
                                   Hours       Above Crown    Below Rim
  Node                 Type      Surcharged         Meters       Meters
  ---------------------------------------------------------------------
  11                   JUNCTION        0.19          0.438        0.474
  30                   JUNCTION        0.03          0.095        0.785
  54                   JUNCTION        0.22          0.800        0.000
  61                   JUNCTION        0.06          0.180        0.620
  62                   JUNCTION        0.03          0.111        0.689
  63                   JUNCTION        0.13          0.800        0.000
  64                   JUNCTION        0.11          0.414        0.386
  66                   JUNCTION        0.07          0.173        0.627
  
  
  *********************
  Node Flooding Summary
  *********************
  
  Flooding refers to all water that overflows a node, whether it ponds or not.
  --------------------------------------------------------------------------
                                                             Total   Maximum
                                 Maximum   Time of Max       Flood    Ponded
                        Hours       Rate    Occurrence      Volume     Depth
  Node                 Flooded       LPS   days hr:min    10^6 ltr    Meters
  --------------------------------------------------------------------------
  54                      0.01      0.75      0  03:05       0.000     0.000
  63                      0.01     24.96      0  03:10       0.000     0.000
  
  
  ***********************
  Outfall Loading Summary
  ***********************
  
  -----------------------------------------------------------
                         Flow       Avg       Max       Total
                         Freq      Flow      Flow      Volume
  Outfall Node           Pcnt       LPS       LPS    10^6 ltr
  -----------------------------------------------------------
  47                    99.29    220.62   1133.27       2.153
  48                    71.57     53.37    228.07       0.370
  -----------------------------------------------------------
  System                85.43    273.99   1352.36       2.523
  
  
  ********************
  Link Flow Summary
  ********************
  
  -----------------------------------------------------------------------------
                                 Maximum  Time of Max   Maximum    Max/    Max/
                                  |Flow|   Occurrence   |Veloc|    Full    Full
  Link                 Type          LPS  days hr:min     m/sec    Flow   Depth
  -----------------------------------------------------------------------------
  64                   CONDUIT   1133.27     0  03:12      2.20    1.15    0.62
  30                   CONDUIT     96.65     0  03:03      1.20    0.80    0.61
  31                   CONDUIT   1074.24     0  03:12      1.94    1.09    0.67
  27                   CONDUIT    415.77     0  03:08      0.78    0.42    0.66
  28                   CONDUIT    671.57     0  03:12      1.65    0.68    0.52
  63                   CONDUIT      0.00     0  00:00      0.00    0.00    0.00
  29                   CONDUIT    435.74     0  03:08      0.96    0.44    0.62
  24                   CONDUIT    663.72     0  03:11      1.49    0.67    0.56
  62                   CONDUIT      0.00     0  00:00      0.00    0.00    0.00
  32                   CONDUIT    439.54     0  03:08      1.60    0.81    0.54
  23                   CONDUIT    626.48     0  03:11      1.36    0.64    0.57
  26                   CONDUIT     69.16     0  03:05      0.97    0.23    0.30
  36                   CONDUIT    436.45     0  03:08      1.40    0.80    0.60
  21                   CONDUIT    603.77     0  03:10      1.30    0.61    0.57
  22                   CONDUIT     34.42     0  03:05      0.89    0.28    0.35
  37                   CONDUIT    270.72     0  03:07      1.47    0.91    0.62
  43                   CONDUIT    186.17     0  03:13      1.58    1.54    0.89
  19                   CONDUIT    434.38     0  03:12      1.00    0.44    0.55
  20                   CONDUIT    249.42     0  03:05      2.03    2.06    0.94
  38                   CONDUIT    123.83     0  03:05      1.20    0.41    0.43
  39                   CONDUIT    153.23     0  03:07      0.85    0.51    0.65
  44                   CONDUIT    192.73     0  03:12      1.62    1.59    0.90
  55                   CONDUIT      0.00     0  03:13      0.00    0.00    0.50
  9                    CONDUIT    429.63     0  03:12      1.04    0.44    0.53
  15                   CONDUIT    249.40     0  03:05      1.98    2.06    1.00
  33                   CONDUIT    117.09     0  03:05      1.26    0.97    0.69
  34                   CONDUIT     77.14     0  03:16      1.05    0.34    0.37
  49                   CONDUIT    161.40     0  03:06      1.28    0.70    0.57
  45                   CONDUIT    113.52     0  03:05      1.18    1.15    1.00
  46                   CONDUIT    129.69     0  03:12      1.04    1.07    1.00
  56                   CONDUIT      0.00     0  00:00      0.00    0.00    0.00
  10                   CONDUIT     37.50     0  03:06      0.73    0.07    0.16
  11                   CONDUIT    407.15     0  03:12      1.03    0.41    0.51
  48                   CONDUIT    159.44     0  03:05      1.72    1.62    0.92
  57                   CONDUIT      0.00     0  00:00      0.00    0.00    0.00
  12                   CONDUIT    396.08     0  03:12      1.06    0.40    0.48
  13                   CONDUIT     25.20     0  03:04      0.68    0.05    0.13
  47                   CONDUIT      0.00     0  00:00      0.00    0.00    0.00
  4                    CONDUIT    118.79     0  03:05      1.32    0.98    0.68
  5                    CONDUIT    294.97     0  03:08      0.85    0.30    0.46
  3                    CONDUIT    118.25     0  03:04      1.43    1.20    0.80
  6                    CONDUIT    296.79     0  03:08      0.89    0.30    0.45
  14                   CONDUIT      0.00     0  00:00      0.00    0.00    0.00
  7                    CONDUIT     86.41     0  03:08      1.03    0.29    0.34
  40                   CONDUIT    211.02     0  03:08      1.26    0.39    0.37
  59                   CONDUIT      0.00     0  00:00      0.00    0.00    0.00
  1                    CONDUIT     89.53     0  03:06      0.98    0.30    0.37
  18                   CONDUIT    212.98     0  03:07      1.11    0.39    0.41
  2                    CONDUIT     90.34     0  03:05      0.95    0.30    0.37
  58                   CONDUIT      0.00     0  00:00      0.00    0.00    0.00
  17                   CONDUIT    214.92     0  03:06      1.06    0.40    0.43
  60                   CONDUIT      0.00     0  00:00      0.00    0.00    0.00
  8                    CONDUIT     90.20     0  03:05      1.27    0.92    0.69
  16                   CONDUIT     68.81     0  03:06      1.12    0.57    0.49
  25                   CONDUIT    148.74     0  03:05      0.82    0.27    0.40
  61                   CONDUIT      0.00     0  00:00      0.00    0.00    0.00
  65                   CONDUIT    228.07     0  03:11      1.38    0.42    0.37
  42                   CONDUIT      0.00     0  00:00      0.00    0.00    0.00
  41                   CONDUIT     71.14     0  03:10      1.50    1.68    0.93
  51                   CONDUIT    135.29     0  03:07      1.31    1.12    0.77
  54                   CONDUIT     39.06     0  03:12      0.60    0.07    0.25
  50                   CONDUIT    141.21     0  03:06      1.54    1.43    0.93
  53                   CONDUIT     33.87     0  03:12      0.78    0.11    0.21
  52                   CONDUIT     34.30     0  03:10      0.84    0.15    0.24
  
  
  ***************************
  Flow Classification Summary
  ***************************
  
  -------------------------------------------------------------------------------------
                      Adjusted    ---------- Fraction of Time in Flow Class ---------- 
                       /Actual         Up    Down  Sub   Sup   Up    Down  Norm  Inlet 
  Conduit               Length    Dry  Dry   Dry   Crit  Crit  Crit  Crit  Ltd   Ctrl  
  -------------------------------------------------------------------------------------
  64                      1.00   0.00  0.00  0.00  0.95  0.05  0.00  0.00  0.00  0.00
  30                      1.00   0.00  0.00  0.00  0.00  0.00  0.00  1.00  0.00  0.00
  31                      1.00   0.00  0.15  0.00  0.85  0.00  0.00  0.00  0.14  0.00
  27                      1.00   0.15  0.12  0.00  0.72  0.00  0.00  0.00  0.26  0.00
  28                      1.00   0.27  0.00  0.00  0.11  0.00  0.00  0.62  0.00  0.00
  63                      1.00   1.00  0.00  0.00  0.00  0.00  0.00  0.00  0.00  0.00
  29                      1.00   0.27  0.00  0.00  0.72  0.01  0.00  0.00  0.24  0.00
  24                      1.00   0.26  0.00  0.00  0.73  0.01  0.00  0.00  0.29  0.00
  62                      1.00   1.00  0.00  0.00  0.00  0.00  0.00  0.00  0.00  0.00
  32                      1.00   0.27  0.00  0.00  0.06  0.00  0.00  0.67  0.00  0.00
  23                      1.00   0.26  0.00  0.00  0.74  0.00  0.00  0.00  0.31  0.00
  26                      1.00   0.28  0.00  0.00  0.00  0.00  0.00  0.72  0.00  0.00
  36                      1.00   0.26  0.00  0.00  0.73  0.00  0.00  0.00  0.32  0.00
  21                      1.00   0.26  0.00  0.00  0.74  0.00  0.00  0.00  0.25  0.00
  22                      1.00   0.28  0.00  0.00  0.00  0.00  0.00  0.72  0.00  0.00
  37                      1.00   0.28  0.00  0.00  0.00  0.00  0.00  0.72  0.00  0.00
  43                      1.00   0.26  0.00  0.00  0.00  0.00  0.00  0.74  0.00  0.00
  19                      1.00   0.26  0.01  0.00  0.73  0.00  0.00  0.00  0.35  0.00
  20                      1.00   0.26  0.00  0.00  0.00  0.00  0.00  0.74  0.00  0.00
  38                      1.00   0.27  0.00  0.00  0.06  0.00  0.00  0.67  0.00  0.00
  39                      1.00   0.28  0.00  0.00  0.72  0.00  0.00  0.00  0.39  0.00
  44                      1.00   0.26  0.00  0.00  0.00  0.00  0.00  0.74  0.00  0.00
  55                      1.00   0.76  0.24  0.00  0.00  0.00  0.00  0.00  0.00  0.00
  9                       1.00   0.27  0.01  0.00  0.73  0.00  0.00  0.00  0.25  0.00
  15                      1.00   0.26  0.00  0.00  0.74  0.01  0.00  0.00  0.45  0.00
  33                      1.00   0.27  0.00  0.00  0.00  0.00  0.00  0.73  0.00  0.00
  34                      1.00   0.28  0.00  0.00  0.06  0.00  0.00  0.67  0.02  0.00
  49                      1.00   0.28  0.00  0.00  0.13  0.00  0.00  0.59  0.00  0.00
  45                      1.00   0.26  0.00  0.00  0.49  0.00  0.00  0.25  0.22  0.00
  46                      1.00   0.27  0.00  0.00  0.19  0.00  0.00  0.53  0.01  0.00
  56                      1.00   1.00  0.00  0.00  0.00  0.00  0.00  0.00  0.00  0.00
  10                      1.00   0.28  0.00  0.00  0.00  0.00  0.00  0.72  0.00  0.00
  11                      1.00   0.27  0.00  0.00  0.73  0.00  0.00  0.00  0.32  0.00
  48                      1.00   0.28  0.00  0.00  0.00  0.00  0.00  0.72  0.00  0.00
  57                      1.00   1.00  0.00  0.00  0.00  0.00  0.00  0.00  0.00  0.00
  12                      1.00   0.27  0.00  0.00  0.73  0.00  0.00  0.00  0.39  0.00
  13                      1.00   0.28  0.00  0.00  0.00  0.00  0.00  0.72  0.00  0.00
  47                      1.00   1.00  0.00  0.00  0.00  0.00  0.00  0.00  0.00  0.00
  4                       1.00   0.28  0.00  0.00  0.00  0.00  0.00  0.72  0.00  0.00
  5                       1.00   0.26  0.00  0.00  0.74  0.00  0.00  0.00  0.22  0.00
  3                       1.00   0.27  0.00  0.00  0.00  0.00  0.00  0.73  0.00  0.00
  6                       1.00   0.26  0.00  0.00  0.74  0.00  0.00  0.00  0.20  0.00
  14                      1.00   1.00  0.00  0.00  0.00  0.00  0.00  0.00  0.00  0.00
  7                       1.00   0.27  0.00  0.00  0.00  0.00  0.00  0.73  0.00  0.00
  40                      1.00   0.25  0.00  0.00  0.00  0.00  0.00  0.75  0.00  0.00
  59                      1.00   1.00  0.00  0.00  0.00  0.00  0.00  0.00  0.00  0.00
  1                       1.00   0.27  0.05  0.00  0.66  0.01  0.00  0.00  0.48  0.00
  18                      1.00   0.25  0.00  0.00  0.75  0.00  0.00  0.00  0.39  0.00
  2                       1.00   0.27  0.00  0.00  0.73  0.01  0.00  0.00  0.48  0.00
  58                      1.00   1.00  0.00  0.00  0.00  0.00  0.00  0.00  0.00  0.00
  17                      1.00   0.25  0.00  0.00  0.75  0.00  0.00  0.00  0.47  0.00
  60                      1.00   1.00  0.00  0.00  0.00  0.00  0.00  0.00  0.00  0.00
  8                       1.00   0.26  0.00  0.00  0.00  0.00  0.00  0.74  0.00  0.00
  16                      1.00   0.28  0.00  0.00  0.00  0.00  0.00  0.72  0.00  0.00
  25                      1.00   0.35  0.02  0.00  0.61  0.00  0.00  0.02  0.28  0.00
  61                      1.00   1.00  0.00  0.00  0.00  0.00  0.00  0.00  0.00  0.00
  65                      1.00   0.28  0.00  0.00  0.71  0.01  0.00  0.00  0.00  0.00
  42                      1.00   1.00  0.00  0.00  0.00  0.00  0.00  0.00  0.00  0.00
  41                      1.00   0.28  0.00  0.00  0.00  0.00  0.00  0.72  0.00  0.00
  51                      1.00   0.28  0.00  0.00  0.00  0.00  0.00  0.72  0.00  0.00
  54                      1.00   0.28  0.00  0.00  0.21  0.00  0.00  0.51  0.00  0.00
  50                      1.00   0.28  0.00  0.00  0.05  0.00  0.00  0.67  0.00  0.00
  53                      1.00   0.28  0.00  0.00  0.00  0.00  0.00  0.72  0.00  0.00
  52                      1.00   0.28  0.00  0.00  0.00  0.00  0.00  0.72  0.00  0.00
  
  
  *************************
  Conduit Surcharge Summary
  *************************
  
  ----------------------------------------------------------------------------
                                                           Hours        Hours 
                         --------- Hours Full --------   Above Full   Capacity
  Conduit                Both Ends  Upstream  Dnstream   Normal Flow   Limited
  ----------------------------------------------------------------------------
  64                          0.01      0.01      0.01      0.17         0.01
  31                          0.01      0.01      0.01      0.14         0.01
  43                          0.01      0.07      0.01      0.29         0.01
  20                          0.01      0.19      0.01      0.29         0.01
  44                          0.01      0.15      0.01      0.29         0.01
  55                          0.01      0.01      2.77      0.01         0.01
  15                          0.19      0.22      0.19      0.28         0.18
  45                          0.06      0.06      0.15      0.08         0.04
  46                          0.03      0.03      0.03      0.05         0.02
  48                          0.01      0.11      0.01      0.18         0.01
  3                           0.01      0.01      0.01      0.18         0.01
  41                          0.01      0.13      0.01      0.17         0.01
  51                          0.01      0.01      0.01      0.09         0.01
  50                          0.01      0.07      0.01      0.13         0.01
  

  Analysis begun on:  Thu Jun 27 17:22:26 2024
  Analysis ended on:  Thu Jun 27 17:22:26 2024
  Total elapsed time: < 1 sec