
  EPA STORM WATER MANAGEMENT MODEL - VERSION 5.1 (Build 5.1.015)
  --------------------------------------------------------------

  
  *********************************************************
  NOTE: The summary statistics displayed in this report are
  based on results found at every computational time step,  
  not just on results from each reporting time step.
  *********************************************************
  
  ****************
  Analysis Options
  ****************
  Flow Units ............... LPS
  Process Models:
    Rainfall/Runoff ........ YES
    RDII ................... NO
    Snowmelt ............... NO
    Groundwater ............ NO
    Flow Routing ........... YES
    Ponding Allowed ........ YES
    Water Quality .......... NO
  Infiltration Method ...... HORTON
  Flow Routing Method ...... DYNWAVE
  Surcharge Method ......... EXTRAN
  Starting Date ............ 10/12/2020 00:00:00
  Ending Date .............. 10/12/2020 06:00:00
  Antecedent Dry Days ...... 0.0
  Report Time Step ......... 00:01:00
  Wet Time Step ............ 00:01:00
  Dry Time Step ............ 00:30:00
  Routing Time Step ........ 60.00 sec
  Variable Time Step ....... YES
  Maximum Trials ........... 8
  Number of Threads ........ 1
  Head Tolerance ........... 0.001500 m
  
  
  **************************        Volume         Depth
  Runoff Quantity Continuity     hectare-m            mm
  **************************     ---------       -------
  Total Precipitation ......         0.831       120.663
  Evaporation Loss .........         0.000         0.000
  Infiltration Loss ........         0.060         8.655
  Surface Runoff ...........         0.745       108.214
  Final Storage ............         0.027         3.856
  Continuity Error (%) .....        -0.051
  
  
  **************************        Volume        Volume
  Flow Routing Continuity        hectare-m      10^6 ltr
  **************************     ---------     ---------
  Dry Weather Inflow .......         0.000         0.000
  Wet Weather Inflow .......         0.745         7.449
  Groundwater Inflow .......         0.000         0.000
  RDII Inflow ..............         0.000         0.000
  External Inflow ..........         0.000         0.000
  External Outflow .........         0.697         6.974
  Flooding Loss ............         0.040         0.402
  Evaporation Loss .........         0.000         0.000
  Exfiltration Loss ........         0.000         0.000
  Initial Stored Volume ....         0.000         0.000
  Final Stored Volume ......         0.008         0.078
  Continuity Error (%) .....        -0.068
  
  
  *************************
  Highest Continuity Errors
  *************************
  Node 35 (1.43%)
  
  
  ***************************
  Time-Step Critical Elements
  ***************************
  Link 62 (100.56%)
  
  
  ********************************
  Highest Flow Instability Indexes
  ********************************
  Link 59 (5)
  Link 63 (3)
  
  
  *************************
  Routing Time Step Summary
  *************************
  Minimum Time Step           :     1.80 sec
  Average Time Step           :     4.31 sec
  Maximum Time Step           :    60.00 sec
  Percent in Steady State     :     1.00
  Average Iterations per Step :     2.25
  Percent Not Converging      :     1.09
  Time Step Frequencies       :
     60.000 - 23.031 sec      :     0.38 %
     23.031 -  8.841 sec      :     2.24 %
      8.841 -  3.393 sec      :    68.89 %
      3.393 -  1.303 sec      :    28.48 %
      1.303 -  0.500 sec      :     0.00 %
  
  
  ***************************
  Subcatchment Runoff Summary
  ***************************
  
  ------------------------------------------------------------------------------------------------------------------------------
                            Total      Total      Total      Total     Imperv       Perv      Total       Total     Peak  Runoff
                           Precip      Runon       Evap      Infil     Runoff     Runoff     Runoff      Runoff   Runoff   Coeff
  Subcatchment                 mm         mm         mm         mm         mm         mm         mm    10^6 ltr      LPS
  ------------------------------------------------------------------------------------------------------------------------------
  67                       120.66       0.00       0.00       3.87     110.70       2.16     112.86        0.62   260.10   0.935
  68                       120.66       0.00       0.00      23.19      81.91      12.43      94.34        0.98   427.02   0.782
  69                       120.66       0.00       0.00       3.87     111.31       2.17     113.48        0.21    97.64   0.940
  70                       120.66       0.00       0.00       3.87     110.70       2.16     112.86        0.32   131.90   0.935
  71                       120.66       0.00       0.00       3.87     110.70       2.16     112.86        0.27   111.93   0.935
  72                       120.66       0.00       0.00       3.87     110.70       2.16     112.86        0.62   259.58   0.935
  73                       120.66       0.00       0.00       3.87     110.70       2.16     112.86        0.30   124.20   0.935
  74                       120.66       0.00       0.00       3.87     110.70       2.16     112.86        0.42   173.54   0.935
  75                       120.66       0.00       0.00       3.87     110.70       2.16     112.86        0.42   176.73   0.935
  76                       120.66       0.00       0.00       3.87     110.70       2.16     112.86        0.23    97.27   0.935
  77                       120.66       0.00       0.00       3.87     110.70       2.16     112.86        0.46   190.22   0.935
  78                       120.66       0.00       0.00       3.87     110.70       2.16     112.86        0.38   159.16   0.935
  79                       120.66       0.00       0.00       3.87     110.70       2.16     112.86        0.32   135.05   0.935
  80                       120.66       0.00       0.00       3.87     110.70       2.16     112.86        0.68   282.09   0.935
  81                       120.66       0.00       0.00       3.87     110.70       2.16     112.86        0.27   113.86   0.935
  82                       120.66       0.00       0.00       3.87     110.70       2.16     112.86        0.41   169.45   0.935
  83                       120.66       0.00       0.00      54.12      35.38      27.27      62.65        0.16    60.95   0.519
  84                       120.66       0.00       0.00       3.87     110.70       2.16     112.86        0.37   154.70   0.935
  
  
  ******************
  Node Depth Summary
  ******************
  
  ---------------------------------------------------------------------------------
                                 Average  Maximum  Maximum  Time of Max    Reported
                                   Depth    Depth      HGL   Occurrence   Max Depth
  Node                 Type       Meters   Meters   Meters  days hr:min      Meters
  ---------------------------------------------------------------------------------
  1                    JUNCTION     0.00     0.00    16.95     0  00:00        0.00
  2                    JUNCTION     0.00     0.00    16.72     0  00:00        0.00
  3                    JUNCTION     0.14     0.43    16.56     0  03:05        0.42
  4                    JUNCTION     0.14     0.41    16.58     0  03:05        0.41
  5                    JUNCTION     0.11     0.33    16.63     0  03:03        0.33
  6                    JUNCTION     0.15     0.44    16.82     0  03:02        0.44
  7                    JUNCTION     0.21     0.72    17.43     0  02:52        0.59
  8                    JUNCTION     0.11     0.20    16.18     0  03:09        0.20
  9                    JUNCTION     0.12     0.34    16.16     0  03:05        0.34
  10                   JUNCTION     0.26     0.64    16.14     0  03:08        0.64
  11                   JUNCTION     0.22     0.60    16.20     0  03:08        0.60
  12                   JUNCTION     0.20     0.59    16.47     0  03:04        0.59
  13                   JUNCTION     0.17     0.56    16.48     0  03:05        0.56
  14                   JUNCTION     0.15     0.51    16.50     0  03:05        0.51
  15                   JUNCTION     0.15     0.48    16.51     0  03:05        0.48
  16                   JUNCTION     0.00     0.00    16.81     0  00:00        0.00
  17                   JUNCTION     0.00     0.00    16.95     0  00:00        0.00
  18                   JUNCTION     0.34     0.92    15.82     0  03:09        0.92
  19                   JUNCTION     0.36     0.90    15.71     0  03:08        0.90
  20                   JUNCTION     0.32     0.92    15.89     0  03:09        0.92
  21                   JUNCTION     0.18     0.71    17.48     0  02:56        0.67
  22                   JUNCTION     0.32     0.92    15.92     0  03:09        0.92
  23                   JUNCTION     0.13     0.34    16.96     0  02:59        0.34
  24                   JUNCTION     0.30     0.90    15.95     0  03:09        0.90
  25                   JUNCTION     0.12     0.39    16.62     0  03:05        0.39
  26                   JUNCTION     0.10     0.19    16.19     0  02:57        0.18
  27                   JUNCTION     0.28     0.88    15.98     0  03:08        0.88
  28                   JUNCTION     0.16     0.43    16.62     0  03:04        0.43
  29                   JUNCTION     0.27     0.85    15.99     0  03:08        0.85
  30                   JUNCTION     0.24     0.79    16.00     0  03:08        0.79
  31                   JUNCTION     0.13     0.36    16.58     0  03:04        0.36
  32                   JUNCTION     0.13     0.36    16.68     0  03:03        0.36
  33                   JUNCTION     0.14     0.55    16.01     0  03:09        0.55
  34                   JUNCTION     0.13     0.46    16.03     0  03:09        0.46
  35                   JUNCTION     0.12     0.38    16.04     0  03:11        0.38
  36                   JUNCTION     0.14     0.39    16.69     0  03:04        0.39
  37                   JUNCTION     0.10     0.19    16.12     0  03:14        0.19
  38                   JUNCTION     0.10     0.19    16.08     0  03:13        0.19
  39                   JUNCTION     0.10     0.30    16.07     0  03:11        0.30
  40                   JUNCTION     0.12     0.35    16.07     0  03:11        0.34
  42                   JUNCTION     0.07     0.51    17.46     0  02:52        0.35
  43                   JUNCTION     0.00     0.00    16.95     0  00:00        0.00
  44                   JUNCTION     0.00     0.00    16.95     0  00:00        0.00
  46                   JUNCTION     0.07     0.56    17.51     0  02:56        0.50
  47                   JUNCTION     0.00     0.01    16.96     0  02:58        0.01
  48                   JUNCTION     0.00     0.00    16.95     0  00:00        0.00
  49                   JUNCTION     0.31     1.05    18.00     0  02:52        1.05
  50                   JUNCTION     0.15     0.45    16.85     0  03:02        0.45
  51                   JUNCTION     0.08     0.24    16.64     0  03:03        0.24
  52                   JUNCTION     0.09     0.26    16.66     0  03:03        0.26
  53                   JUNCTION     0.15     1.05    18.00     0  03:00        1.05
  54                   JUNCTION     0.29     1.05    18.00     0  02:54        1.05
  55                   JUNCTION     0.09     0.24    16.64     0  03:03        0.24
  56                   JUNCTION     0.10     0.27    16.67     0  03:02        0.27
  57                   JUNCTION     0.24     1.05    18.00     0  02:56        1.05
  58                   JUNCTION     0.08     0.21    16.61     0  03:03        0.21
  59                   JUNCTION     0.23     1.05    18.00     0  02:57        1.05
  60                   JUNCTION     0.21     1.05    18.00     0  02:58        1.05
  61                   JUNCTION     0.09     0.25    16.65     0  03:03        0.25
  62                   JUNCTION     0.13     0.37    16.77     0  03:03        0.37
  63                   JUNCTION     0.15     1.05    18.00     0  03:00        1.05
  64                   JUNCTION     0.10     0.31    16.71     0  03:04        0.31
  65                   JUNCTION     0.09     1.05    18.00     0  03:01        0.49
  66                   JUNCTION     0.10     0.31    16.71     0  03:04        0.31
  41                   OUTFALL      0.00     0.00    16.67     0  00:00        0.00
  45                   OUTFALL      0.34     0.84    15.63     0  03:09        0.84
  
  
  *******************
  Node Inflow Summary
  *******************
  
  -------------------------------------------------------------------------------------------------
                                  Maximum  Maximum                  Lateral       Total        Flow
                                  Lateral    Total  Time of Max      Inflow      Inflow     Balance
                                   Inflow   Inflow   Occurrence      Volume      Volume       Error
  Node                 Type           LPS      LPS  days hr:min    10^6 ltr    10^6 ltr     Percent
  -------------------------------------------------------------------------------------------------
  1                    JUNCTION      0.00     0.00     0  00:00           0           0       0.000 ltr
  2                    JUNCTION      0.00     0.00     0  00:00           0           0       0.000 ltr
  3                    JUNCTION      0.00   312.65     0  03:03           0       0.795       0.091
  4                    JUNCTION      0.00   316.60     0  03:03           0       0.795      -0.038
  5                    JUNCTION      0.00   225.54     0  03:03           0       0.532       0.127
  6                    JUNCTION      0.00   427.20     0  03:03           0       0.981      -0.074
  7                    JUNCTION      0.00    76.44     0  02:52           0       0.484       0.240
  8                    JUNCTION      0.00    74.23     0  02:52           0       0.483       0.363
  9                    JUNCTION      0.00    81.07     0  03:10           0       0.481       0.293
  10                   JUNCTION      0.00   998.47     0  03:08           0        3.06       0.222
  11                   JUNCTION      0.00   807.85     0  03:05           0        2.29       0.094
  12                   JUNCTION      0.00   712.50     0  03:05           0        1.78       0.096
  13                   JUNCTION      0.00   312.85     0  03:09           0       0.795       0.064
  14                   JUNCTION      0.00   307.17     0  03:08           0       0.796       0.054
  15                   JUNCTION      0.00   303.09     0  03:05           0       0.795      -0.152
  16                   JUNCTION      0.00     0.00     0  00:00           0           0       0.000 ltr
  17                   JUNCTION      0.00     0.00     0  00:00           0           0       0.000 ltr
  18                   JUNCTION      0.00  1166.93     0  03:09           0        3.93       0.201
  19                   JUNCTION      0.00  2150.50     0  03:09           0        6.98       0.090
  20                   JUNCTION      0.00  1044.90     0  03:09           0        3.52       0.143
  21                   JUNCTION      0.00    75.14     0  02:56           0       0.366       0.133
  22                   JUNCTION      0.00   968.54     0  03:09           0        3.29       0.138
  23                   JUNCTION      0.00    75.09     0  02:56           0       0.365       0.124
  24                   JUNCTION      0.00   878.59     0  03:08           0        2.89       0.200
  25                   JUNCTION      0.00   104.05     0  03:04           0       0.272      -0.097
  26                   JUNCTION      0.00    74.53     0  02:59           0       0.364       0.094
  27                   JUNCTION      0.00   797.02     0  03:08           0        2.55       0.215
  28                   JUNCTION      0.00   414.91     0  03:04           0        1.05       0.119
  29                   JUNCTION      0.00   693.40     0  03:08           0        2.23       0.286
  30                   JUNCTION      0.00   468.60     0  03:13           0        1.56       0.359
  31                   JUNCTION      0.00   279.85     0  03:03           0       0.678       0.140
  32                   JUNCTION      0.00   281.73     0  03:03           0       0.679       0.062
  33                   JUNCTION      0.00   190.81     0  03:13           0       0.511       0.806
  34                   JUNCTION      0.00   161.05     0  03:14           0       0.515       0.745
  35                   JUNCTION      0.00   150.03     0  03:13           0       0.522       1.446
  36                   JUNCTION      0.00   312.09     0  03:02           0        0.78       0.181
  37                   JUNCTION      0.00    75.78     0  02:57           0       0.364       0.161
  38                   JUNCTION      0.00    75.49     0  03:14           0       0.363       0.224
  39                   JUNCTION      0.00    78.74     0  03:14           0       0.363       0.238
  40                   JUNCTION      0.00   138.76     0  03:12           0       0.523       0.130
  42                   JUNCTION      0.00    11.08     0  02:52           0    0.000426       0.420
  43                   JUNCTION      0.00     0.00     0  00:00           0           0       0.000 ltr
  44                   JUNCTION      0.00     0.00     0  00:00           0           0       0.000 ltr
  46                   JUNCTION      0.00    10.30     0  02:55           0    0.000415      -1.708
  47                   JUNCTION      0.00     0.19     0  02:57           0    1.53e-05      -0.881 ltr
  48                   JUNCTION      0.00     0.00     0  00:00           0           0       0.000 ltr
  49                   JUNCTION    260.10   260.10     0  03:03       0.624       0.625       0.055
  50                   JUNCTION    427.02   427.02     0  03:03       0.979       0.981      -0.039
  51                   JUNCTION     97.64    97.64     0  03:02       0.214       0.214      -0.049
  52                   JUNCTION    131.90   131.90     0  03:03       0.317       0.317      -0.122
  53                   JUNCTION    111.93   111.93     0  03:03       0.269       0.269       0.171
  54                   JUNCTION    259.58   259.58     0  03:03       0.623       0.624       0.124
  55                   JUNCTION    124.20   124.20     0  03:03       0.298       0.299      -0.082
  56                   JUNCTION    173.54   173.54     0  03:03       0.416       0.417      -0.103
  57                   JUNCTION    176.73   176.73     0  03:03       0.424       0.425       0.042
  58                   JUNCTION     97.27    97.27     0  03:03       0.233       0.234      -0.082
  59                   JUNCTION    190.22   190.22     0  03:03       0.457       0.457       0.138
  60                   JUNCTION    159.16   159.16     0  03:03       0.382       0.383       0.152
  61                   JUNCTION    135.05   135.05     0  03:03       0.324       0.325      -0.088
  62                   JUNCTION    282.09   282.09     0  03:03       0.677       0.678      -0.112
  63                   JUNCTION    113.86   113.86     0  03:03       0.273       0.274       0.149
  64                   JUNCTION    169.45   169.45     0  03:03       0.407       0.407      -0.113
  65                   JUNCTION     60.95    60.95     0  03:03       0.161       0.161       0.104
  66                   JUNCTION    154.70   154.70     0  03:03       0.371       0.372      -0.124
  41                   OUTFALL       0.00     0.00     0  00:00           0           0       0.000 ltr
  45                   OUTFALL       0.00  2151.13     0  03:09           0        6.97       0.000
  
  
  **********************
  Node Surcharge Summary
  **********************
  
  Surcharging occurs when water rises above the top of the highest conduit.
  ---------------------------------------------------------------------
                                               Max. Height   Min. Depth
                                   Hours       Above Crown    Below Rim
  Node                 Type      Surcharged         Meters       Meters
  ---------------------------------------------------------------------
  7                    JUNCTION        0.58          0.280        0.565
  21                   JUNCTION        0.43          0.320        0.525
  42                   JUNCTION        0.55          0.265        0.535
  46                   JUNCTION        0.40          0.311        0.489
  49                   JUNCTION        0.87          0.800        0.000
  53                   JUNCTION        0.32          0.800        0.000
  54                   JUNCTION        0.82          0.800        0.000
  57                   JUNCTION        0.57          0.800        0.000
  59                   JUNCTION        0.59          0.800        0.000
  60                   JUNCTION        0.49          0.800        0.000
  63                   JUNCTION        0.31          0.800        0.000
  65                   JUNCTION        0.14          0.800        0.000
  
  
  *********************
  Node Flooding Summary
  *********************
  
  Flooding refers to all water that overflows a node, whether it ponds or not.
  --------------------------------------------------------------------------
                                                             Total   Maximum
                                 Maximum   Time of Max       Flood    Ponded
                        Hours       Rate    Occurrence      Volume     Depth
  Node                 Flooded       LPS   days hr:min    10^6 ltr    Meters
  --------------------------------------------------------------------------
  49                      0.51    186.37      0  03:03       0.141     0.000
  53                      0.12     19.16      0  03:03       0.005     0.000
  54                      0.41    167.75      0  03:03       0.111     0.000
  57                      0.33    102.21      0  03:03       0.059     0.000
  59                      0.29     99.53      0  03:03       0.052     0.000
  60                      0.23     71.01      0  03:03       0.033     0.000
  63                      0.07      9.78      0  03:03       0.002     0.000
  65                      0.01      9.27      0  03:01       0.000     0.000
  
  
  ***********************
  Outfall Loading Summary
  ***********************
  
  -----------------------------------------------------------
                         Flow       Avg       Max       Total
                         Freq      Flow      Flow      Volume
  Outfall Node           Pcnt       LPS       LPS    10^6 ltr
  -----------------------------------------------------------
  41                     0.00      0.00      0.00       0.000
  45                    99.50    488.99   2151.13       6.974
  -----------------------------------------------------------
  System                49.75    488.99   2151.13       6.974
  
  
  ********************
  Link Flow Summary
  ********************
  
  -----------------------------------------------------------------------------
                                 Maximum  Time of Max   Maximum    Max/    Max/
                                  |Flow|   Occurrence   |Veloc|    Full    Full
  Link                 Type          LPS  days hr:min     m/sec    Flow   Depth
  -----------------------------------------------------------------------------
  58                   CONDUIT      0.00     0  00:00      0.00    0.00    0.00
  1                    CONDUIT      0.00     0  00:00      0.00    0.00    0.00
  62                   CONDUIT   2151.13     0  03:09      2.97    2.18    0.87
  25                   CONDUIT   1000.27     0  03:08      2.01    1.01    0.61
  24                   CONDUIT   1173.80     0  03:10      1.58    1.19    0.91
  16                   CONDUIT    803.83     0  03:05      1.76    0.82    0.59
  17                   CONDUIT    107.38     0  03:11      0.88    0.17    0.49
  22                   CONDUIT    124.16     0  03:03      1.10    0.19    0.28
  61                   CONDUIT      0.00     0  00:00      0.00    0.00    0.00
  23                   CONDUIT    174.51     0  03:03      1.24    0.27    0.32
  26                   CONDUIT   1046.87     0  03:09      1.41    1.06    0.92
  15                   CONDUIT    716.08     0  03:05      1.94    1.11    0.69
  20                   CONDUIT     91.77     0  03:11      1.89    2.17    0.96
  18                   CONDUIT     81.07     0  03:10      0.87    0.13    0.33
  60                   CONDUIT      0.00     0  00:00      0.00    0.00    0.00
  27                   CONDUIT     97.05     0  03:03      1.03    0.15    0.24
  29                   CONDUIT    970.88     0  03:09      1.33    0.99    0.92
  13                   CONDUIT    327.04     0  03:09      0.92    0.51    0.72
  14                   CONDUIT    430.45     0  03:03      1.62    0.67    0.52
  40                   CONDUIT     74.23     0  02:52      1.55    1.75    0.94
  30                   CONDUIT     90.65     0  03:02      1.87    2.14    0.96
  32                   CONDUIT    877.89     0  03:09      1.20    0.89    0.91
  11                   CONDUIT    312.85     0  03:09      0.95    0.49    0.67
  6                    CONDUIT    427.20     0  03:03      1.48    0.66    0.56
  7                    CONDUIT     76.44     0  02:52      1.56    1.81    1.00
  59                   CONDUIT     11.08     0  02:52      0.23    0.26    1.00
  33                   CONDUIT     88.11     0  03:07      1.82    2.08    0.96
  36                   CONDUIT    790.48     0  03:08      1.10    0.80    0.89
  9                    CONDUIT    307.17     0  03:08      0.98    0.48    0.62
  37                   CONDUIT    135.43     0  03:03      1.13    0.21    0.29
  43                   CONDUIT    684.56     0  03:08      1.00    0.69    0.86
  8                    CONDUIT    303.09     0  03:05      1.14    0.47    0.57
  19                   CONDUIT      0.00     0  00:00      0.00    0.00    0.00
  44                   CONDUIT    482.27     0  03:13      0.77    0.49    0.82
  55                   CONDUIT    277.75     0  03:05      1.39    0.43    0.42
  3                    CONDUIT    312.65     0  03:03      1.25    0.49    0.52
  21                   CONDUIT      0.00     0  00:00      0.00    0.00    0.00
  45                   CONDUIT    415.56     0  03:05      1.62    0.65    0.51
  46                   CONDUIT    212.79     0  03:13      1.01    0.33    0.71
  56                   CONDUIT    279.85     0  03:03      1.32    0.44    0.45
  4                    CONDUIT    223.85     0  03:03      1.15    0.35    0.42
  10                   CONDUIT     92.75     0  03:04      1.91    2.19    0.97
  38                   CONDUIT    104.18     0  03:05      0.49    0.16    0.51
  39                   CONDUIT    310.79     0  03:04      1.27    0.48    0.49
  47                   CONDUIT    190.81     0  03:13      0.89    0.30    0.63
  57                   CONDUIT    281.73     0  03:03      1.26    0.44    0.46
  5                    CONDUIT     95.99     0  03:02      0.79    0.15    0.31
  12                   CONDUIT    130.62     0  03:03      0.78    0.20    0.37
  34                   CONDUIT    104.05     0  03:04      2.13    2.46    0.98
  41                   CONDUIT    148.90     0  03:04      0.77    0.23    0.44
  49                   CONDUIT    164.59     0  03:02      0.82    0.26    0.44
  48                   CONDUIT    161.05     0  03:14      0.99    0.25    0.52
  50                   CONDUIT    150.03     0  03:13      1.02    0.23    0.45
  51                   CONDUIT     60.95     0  03:03      1.31    1.44    0.90
  52                   CONDUIT     95.64     0  03:14      0.72    0.15    0.40
  53                   CONDUIT     78.74     0  03:14      0.85    0.12    0.30
  54                   CONDUIT     75.49     0  03:14      0.88    0.12    0.24
  42                   CONDUIT     75.78     0  02:57      0.87    0.12    0.23
  65                   CONDUIT      0.00     0  00:00      0.00    0.00    0.00
  35                   CONDUIT     74.53     0  02:59      1.56    1.76    0.94
  31                   CONDUIT     75.09     0  02:56      1.53    1.77    1.00
  64                   CONDUIT      0.19     0  02:57      0.10    0.00    0.12
  28                   CONDUIT     75.12     0  02:56      1.53    1.77    1.00
  63                   CONDUIT     10.30     0  02:55      0.21    0.24    1.00
  
  
  ***************************
  Flow Classification Summary
  ***************************
  
  -------------------------------------------------------------------------------------
                      Adjusted    ---------- Fraction of Time in Flow Class ---------- 
                       /Actual         Up    Down  Sub   Sup   Up    Down  Norm  Inlet 
  Conduit               Length    Dry  Dry   Dry   Crit  Crit  Crit  Crit  Ltd   Ctrl  
  -------------------------------------------------------------------------------------
  58                      1.00   1.00  0.00  0.00  0.00  0.00  0.00  0.00  0.00  0.00
  1                       1.00   1.00  0.00  0.00  0.00  0.00  0.00  0.00  0.00  0.00
  62                      1.00   0.00  0.00  0.00  1.00  0.00  0.00  0.00  0.00  0.00
  25                      1.00   0.00  0.00  0.00  0.00  0.00  0.00  1.00  0.00  0.00
  24                      1.00   0.00  0.00  0.00  1.00  0.00  0.00  0.00  0.32  0.00
  16                      1.00   0.00  0.00  0.00  0.35  0.00  0.00  0.65  0.00  0.00
  17                      1.00   0.00  0.00  0.00  0.23  0.00  0.00  0.77  0.04  0.00
  22                      1.00   0.00  0.00  0.00  0.00  0.00  0.00  1.00  0.00  0.00
  61                      1.00   1.00  0.00  0.00  0.00  0.00  0.00  0.00  0.00  0.00
  23                      1.00   0.00  0.00  0.00  0.00  0.00  0.00  1.00  0.00  0.00
  26                      1.00   0.00  0.00  0.00  1.00  0.00  0.00  0.00  0.07  0.00
  15                      1.00   0.00  0.00  0.00  0.00  0.00  0.00  1.00  0.00  0.00
  20                      1.00   0.00  0.00  0.00  0.00  0.00  0.00  1.00  0.00  0.00
  18                      1.00   0.00  0.00  0.00  1.00  0.00  0.00  0.00  0.70  0.00
  60                      1.00   1.00  0.00  0.00  0.00  0.00  0.00  0.00  0.00  0.00
  27                      1.00   0.00  0.00  0.00  0.00  0.00  0.00  1.00  0.00  0.00
  29                      1.00   0.00  0.00  0.00  1.00  0.00  0.00  0.00  0.01  0.00
  13                      1.00   0.00  0.00  0.00  1.00  0.00  0.00  0.00  0.10  0.00
  14                      1.00   0.00  0.00  0.00  0.00  0.00  0.00  1.00  0.00  0.00
  40                      1.00   0.00  0.00  0.00  0.00  0.00  0.00  1.00  0.00  0.00
  30                      1.00   0.00  0.00  0.00  0.00  0.00  0.00  1.00  0.00  0.00
  32                      1.00   0.00  0.00  0.00  1.00  0.00  0.00  0.00  0.16  0.00
  11                      1.00   0.00  0.00  0.00  1.00  0.00  0.00  0.00  0.62  0.00
  6                       1.00   0.00  0.00  0.00  1.00  0.00  0.00  0.00  0.04  0.00
  7                       1.00   0.00  0.00  0.00  0.99  0.00  0.00  0.00  0.39  0.00
  59                      1.00   0.34  0.02  0.00  0.27  0.00  0.00  0.37  0.02  0.00
  33                      1.00   0.00  0.00  0.00  0.00  0.00  0.00  1.00  0.00  0.00
  36                      1.00   0.00  0.00  0.00  1.00  0.00  0.00  0.00  0.14  0.00
  9                       1.00   0.00  0.00  0.00  1.00  0.00  0.00  0.00  0.36  0.00
  37                      1.00   0.00  0.00  0.00  0.00  0.00  0.00  1.00  0.00  0.00
  43                      1.00   0.00  0.00  0.00  1.00  0.00  0.00  0.00  0.12  0.00
  8                       1.00   0.00  0.00  0.00  0.99  0.00  0.00  0.01  0.05  0.00
  19                      1.00   1.00  0.00  0.00  0.00  0.00  0.00  0.00  0.00  0.00
  44                      1.00   0.00  0.00  0.00  1.00  0.00  0.00  0.00  0.40  0.00
  55                      1.00   0.00  0.00  0.00  0.00  0.00  0.00  1.00  0.00  0.00
  3                       1.00   0.00  0.00  0.00  1.00  0.00  0.00  0.00  0.44  0.00
  21                      1.00   1.00  0.00  0.00  0.00  0.00  0.00  0.00  0.00  0.00
  45                      1.00   0.00  0.00  0.00  0.00  0.00  0.00  1.00  0.00  0.00
  46                      1.00   0.00  0.00  0.00  0.18  0.00  0.00  0.81  0.00  0.00
  56                      1.00   0.00  0.00  0.00  1.00  0.00  0.00  0.00  0.72  0.00
  4                       1.00   0.00  0.00  0.00  0.15  0.00  0.00  0.85  0.00  0.00
  10                      1.00   0.00  0.00  0.00  0.00  0.00  0.00  1.00  0.00  0.00
  38                      1.00   0.00  0.00  0.00  1.00  0.00  0.00  0.00  0.10  0.00
  39                      1.00   0.00  0.00  0.00  0.48  0.00  0.00  0.52  0.02  0.00
  47                      1.00   0.00  0.00  0.00  1.00  0.00  0.00  0.00  0.49  0.00
  57                      1.00   0.00  0.00  0.00  1.00  0.00  0.00  0.00  0.50  0.00
  5                       1.00   0.00  0.00  0.00  0.23  0.00  0.00  0.77  0.00  0.00
  12                      1.00   0.00  0.00  0.00  1.00  0.00  0.00  0.00  0.92  0.00
  34                      1.00   0.00  0.00  0.00  0.00  0.00  0.00  1.00  0.00  0.00
  41                      1.00   0.00  0.00  0.00  1.00  0.00  0.00  0.00  0.90  0.00
  49                      1.00   0.00  0.00  0.00  1.00  0.00  0.00  0.00  0.90  0.00
  48                      1.00   0.00  0.00  0.00  1.00  0.00  0.00  0.00  0.44  0.00
  50                      1.00   0.00  0.00  0.00  1.00  0.00  0.00  0.00  0.44  0.00
  51                      1.00   0.00  0.00  0.00  0.00  0.00  0.00  1.00  0.00  0.00
  52                      1.00   0.00  0.01  0.00  0.99  0.00  0.00  0.00  0.76  0.00
  53                      1.00   0.01  0.00  0.00  0.99  0.00  0.00  0.00  0.49  0.00
  54                      1.00   0.00  0.00  0.00  1.00  0.00  0.00  0.00  0.46  0.00
  42                      1.00   0.00  0.00  0.00  1.00  0.00  0.00  0.00  0.47  0.00
  65                      1.00   1.00  0.00  0.00  0.00  0.00  0.00  0.00  0.00  0.00
  35                      1.00   0.00  0.00  0.00  0.00  0.00  0.00  1.00  0.00  0.00
  31                      1.00   0.00  0.00  0.00  1.00  0.00  0.00  0.00  0.06  0.00
  64                      1.00   0.39  0.00  0.00  0.13  0.00  0.00  0.48  0.01  0.00
  28                      1.00   0.00  0.00  0.00  1.00  0.00  0.00  0.00  0.42  0.00
  63                      1.00   0.33  0.04  0.00  0.27  0.00  0.00  0.37  0.04  0.00
  
  
  *************************
  Conduit Surcharge Summary
  *************************
  
  ----------------------------------------------------------------------------
                                                           Hours        Hours 
                         --------- Hours Full --------   Above Full   Capacity
  Conduit                Both Ends  Upstream  Dnstream   Normal Flow   Limited
  ----------------------------------------------------------------------------
  62                          0.01      0.01      0.01      0.48         0.01
  25                          0.01      0.01      0.01      0.02         0.01
  24                          0.01      0.01      0.01      0.22         0.01
  26                          0.01      0.01      0.01      0.14         0.01
  15                          0.01      0.01      0.01      0.11         0.01
  20                          0.01      0.82      0.01      0.94         0.01
  40                          0.01      0.83      0.01      0.95         0.01
  30                          0.01      0.59      0.01      0.68         0.01
  7                           0.83      0.87      0.83      0.95         0.83
  59                          0.55      0.55      0.58      0.01         0.01
  33                          0.01      0.49      0.01      0.57         0.01
  10                          0.01      0.32      0.01      0.38         0.01
  34                          0.01      0.31      0.01      0.39         0.01
  51                          0.01      0.14      0.01      0.21         0.01
  35                          0.01      0.44      0.01      0.64         0.01
  31                          0.44      0.54      0.44      0.64         0.44
  28                          0.54      0.57      0.54      0.63         0.54
  63                          0.40      0.40      0.43      0.01         0.01
  

  Analysis begun on:  Fri Jun 28 10:19:18 2024
  Analysis ended on:  Fri Jun 28 10:19:18 2024
  Total elapsed time: < 1 sec