
  EPA STORM WATER MANAGEMENT MODEL - VERSION 5.1 (Build 5.1.015)
  --------------------------------------------------------------

  
  *********************************************************
  NOTE: The summary statistics displayed in this report are
  based on results found at every computational time step,  
  not just on results from each reporting time step.
  *********************************************************
  
  ****************
  Analysis Options
  ****************
  Flow Units ............... LPS
  Process Models:
    Rainfall/Runoff ........ YES
    RDII ................... NO
    Snowmelt ............... NO
    Groundwater ............ NO
    Flow Routing ........... YES
    Ponding Allowed ........ YES
    Water Quality .......... NO
  Infiltration Method ...... HORTON
  Flow Routing Method ...... DYNWAVE
  Surcharge Method ......... EXTRAN
  Starting Date ............ 10/12/2020 00:00:00
  Ending Date .............. 10/12/2020 06:00:00
  Antecedent Dry Days ...... 0.0
  Report Time Step ......... 00:01:00
  Wet Time Step ............ 00:01:00
  Dry Time Step ............ 00:30:00
  Routing Time Step ........ 60.00 sec
  Variable Time Step ....... YES
  Maximum Trials ........... 8
  Number of Threads ........ 1
  Head Tolerance ........... 0.001500 m
  
  
  **************************        Volume         Depth
  Runoff Quantity Continuity     hectare-m            mm
  **************************     ---------       -------
  Initial LID Storage ......         0.026         3.763
  Total Precipitation ......         0.831       120.663
  Evaporation Loss .........         0.000         0.000
  Infiltration Loss ........         0.276        40.112
  Surface Runoff ...........         0.254        36.900
  Final Storage ............         0.327        47.480
  Continuity Error (%) .....        -0.054
  
  
  **************************        Volume        Volume
  Flow Routing Continuity        hectare-m      10^6 ltr
  **************************     ---------     ---------
  Dry Weather Inflow .......         0.000         0.000
  Wet Weather Inflow .......         0.255         2.548
  Groundwater Inflow .......         0.000         0.000
  RDII Inflow ..............         0.000         0.000
  External Inflow ..........         0.000         0.000
  External Outflow .........         0.001         0.013
  Flooding Loss ............         0.180         1.796
  Evaporation Loss .........         0.000         0.000
  Exfiltration Loss ........         0.000         0.000
  Initial Stored Volume ....         0.000         0.000
  Final Stored Volume ......         0.071         0.707
  Continuity Error (%) .....         1.270
  
  
  *************************
  Highest Continuity Errors
  *************************
  Node 15 (100.00%)
  Node 21 (100.00%)
  Node 6 (100.00%)
  Node 8 (100.00%)
  Node 13 (100.00%)
  
  
  ***************************
  Time-Step Critical Elements
  ***************************
  Link 30 (21.31%)
  Link 3 (16.49%)
  Link 52 (9.45%)
  Link 10 (7.56%)
  Link 15 (4.47%)
  
  
  ********************************
  Highest Flow Instability Indexes
  ********************************
  Link 53 (44)
  Link 52 (41)
  Link 38 (39)
  Link 36 (38)
  Link 7 (36)
  
  
  *************************
  Routing Time Step Summary
  *************************
  Minimum Time Step           :     1.67 sec
  Average Time Step           :    37.11 sec
  Maximum Time Step           :    60.00 sec
  Percent in Steady State     :     0.00
  Average Iterations per Step :     4.61
  Percent Not Converging      :    26.12
  Time Step Frequencies       :
     60.000 - 23.031 sec      :    61.10 %
     23.031 -  8.841 sec      :    26.16 %
      8.841 -  3.393 sec      :    11.53 %
      3.393 -  1.303 sec      :     1.20 %
      1.303 -  0.500 sec      :     0.00 %
  
  
  ***************************
  Subcatchment Runoff Summary
  ***************************
  
  ------------------------------------------------------------------------------------------------------------------------------
                            Total      Total      Total      Total     Imperv       Perv      Total       Total     Peak  Runoff
                           Precip      Runon       Evap      Infil     Runoff     Runoff     Runoff      Runoff   Runoff   Coeff
  Subcatchment                 mm         mm         mm         mm         mm         mm         mm    10^6 ltr      LPS
  ------------------------------------------------------------------------------------------------------------------------------
  67                       120.66       0.00       0.00      57.93     100.84      30.47      30.47        0.17   118.13   0.252
  68                       120.66       0.00       0.00      27.07      74.11      17.53      17.53        0.18    68.84   0.145
  69                       120.66       0.00       0.00      52.05      90.85       6.20       6.20        0.01    25.06   0.051
  70                       120.66       0.00       0.00      48.28      97.08      14.88      14.88        0.04    38.92   0.123
  71                       120.66       0.00       0.00      80.76     103.83      36.34      36.34        0.09    90.79   0.301
  72                       120.66       0.00       0.00       7.37     106.75      79.28      79.28        0.44   250.16   0.657
  73                       120.66       0.00       0.00      48.99      96.24      11.46      11.46        0.03    35.69   0.095
  74                       120.66       0.00       0.00      69.49     106.27      47.48      47.48        0.18   150.90   0.394
  75                       120.66       0.00       0.00      64.10      96.18      13.34      13.34        0.05    69.37   0.111
  76                       120.66       0.00       0.00       3.87     110.70       2.16     112.86        0.23    97.27   0.935
  77                       120.66       0.00       0.00      10.36      99.91      29.08      29.08        0.12    76.72   0.241
  78                       120.66       0.00       0.00      89.36     101.03      27.89      27.89        0.09   118.56   0.231
  79                       120.66       0.00       0.00      75.96     105.01      41.08      41.08        0.12   113.34   0.340
  80                       120.66       0.00       0.00      31.94     100.70      32.31      32.31        0.19   127.74   0.268
  81                       120.66       0.00       0.00       9.71     101.69      41.29      41.29        0.10    71.45   0.342
  82                       120.66       0.00       0.00       8.46     104.65      63.08      63.08        0.23   159.44   0.523
  83                       120.66       0.00       0.00      86.47      33.33      30.66      30.66        0.08    34.36   0.254
  84                       120.66       0.00       0.00       8.72     104.07      58.76      58.76        0.19   140.98   0.487
  

  ***********************
  LID Performance Summary
  ***********************

  --------------------------------------------------------------------------------------------------------------------
                                         Total      Evap     Infil   Surface    Drain    Initial     Final  Continuity
                                        Inflow      Loss      Loss   Outflow   Outflow   Storage   Storage       Error
  Subcatchment      LID Control             mm        mm        mm        mm        mm        mm        mm           %
  --------------------------------------------------------------------------------------------------------------------
  67                2                  1236.96      0.00    955.78    281.26      0.00      0.00      0.00       -0.01
  67                1                  1236.96      0.00     72.15    371.25      0.00     72.00    865.27        0.02
  68                1                   890.26      0.00     63.43     67.84      0.00     72.00    830.95        0.00
  69                2                   610.22      0.00    554.80     55.44      0.00      0.00      0.00       -0.00
  69                1                   610.22      0.00     45.01      0.00      0.00     72.00    637.21       -0.00
  70                2                   899.27      0.00    756.55    142.74      0.00      0.00      0.00       -0.00
  70                1                   899.27      0.00     62.64     75.73      0.00     72.00    832.84        0.01
  71                2                  1769.47      0.00   1224.94    544.54      0.00      0.00      0.00       -0.00
  72                1                  3069.15      0.00    100.59   2149.39      0.00     72.00    891.23       -0.00
  73                2                   847.38      0.00    723.32    124.09      0.00      0.00      0.00       -0.00
  73                1                   847.38      0.00     60.62     33.90      0.00     72.00    824.84        0.00
  74                2                  2737.04      0.00   1619.38   1117.68      0.00      0.00      0.00       -0.00
  75                2                   844.12      0.00    721.20    122.93      0.00      0.00      0.00       -0.00
  75                1                   844.12      0.00     60.48     31.32      0.00     72.00    824.29        0.00
  77                1                  1131.78      0.00     69.60    275.81      0.00     72.00    858.15        0.02
  78                2                  1261.31      0.00    969.13    292.20      0.00      0.00      0.00       -0.00
  79                2                  2132.59      0.00   1385.17    747.43      0.00      0.00      0.00       -0.00
  80                2                  1219.75      0.00    946.21    273.58      0.00      0.00      0.00       -0.00
  80                1                  1219.75      0.00     71.75    355.46      0.00     72.00    864.27        0.02
  81                1                  1352.65      0.00     74.71    479.08      0.00     72.00    870.49        0.03
  82                1                  2007.49      0.00     86.62   1108.53      0.00     72.00    884.00        0.02
  83                2                   691.93      0.00    608.67     83.43      0.00      0.00      0.00       -0.02
  84                1                  1833.68      0.00     83.75    940.36      0.00     72.00    881.21        0.02
  
  ******************
  Node Depth Summary
  ******************
  
  ---------------------------------------------------------------------------------
                                 Average  Maximum  Maximum  Time of Max    Reported
                                   Depth    Depth      HGL   Occurrence   Max Depth
  Node                 Type       Meters   Meters   Meters  days hr:min      Meters
  ---------------------------------------------------------------------------------
  1                    JUNCTION     0.31     0.63    16.84     0  05:48        0.63
  2                    JUNCTION     0.26     0.52    16.84     0  05:02        0.52
  3                    JUNCTION     0.22     0.43    16.84     0  05:13        0.43
  4                    JUNCTION     0.54     1.28    18.00     0  03:09        1.28
  5                    JUNCTION     1.10     2.35    18.00     0  03:09        2.35
  6                    JUNCTION     0.15     0.64    16.32     0  06:00        0.64
  7                    JUNCTION     0.60     1.14    16.84     0  04:57        1.14
  8                    JUNCTION     0.01     0.03    16.17     0  06:00        0.03
  9                    JUNCTION     0.01     0.04    16.29     0  06:00        0.04
  10                   JUNCTION     0.80     1.67    18.00     0  03:08        1.67
  11                   JUNCTION     0.77     1.31    18.00     0  03:04        1.31
  12                   JUNCTION     0.00     0.00    16.95     0  00:00        0.00
  13                   JUNCTION     0.04     0.15    15.74     0  06:00        0.15
  14                   JUNCTION     0.48     1.04    16.58     0  04:30        1.04
  15                   JUNCTION     0.04     0.16    15.67     0  06:00        0.16
  16                   JUNCTION     1.50     2.57    18.00     0  03:04        2.57
  17                   JUNCTION     0.39     0.97    16.35     0  06:00        0.97
  18                   JUNCTION     0.43     0.90    16.23     0  04:45        0.90
  19                   JUNCTION     0.01     0.04    15.29     0  06:00        0.04
  20                   JUNCTION     0.04     0.16    15.23     0  06:00        0.16
  21                   JUNCTION     0.06     0.15    15.14     0  06:00        0.15
  22                   JUNCTION     1.54     2.90    18.00     0  03:08        2.90
  23                   JUNCTION     2.21     3.07    18.00     0  02:57        3.07
  24                   JUNCTION     1.38     2.64    18.00     0  03:08        2.64
  25                   JUNCTION     0.80     1.57    18.00     0  03:08        1.57
  26                   JUNCTION     0.53     1.05    18.00     0  03:07        1.05
  27                   JUNCTION     1.36     2.59    18.00     0  03:08        2.59
  28                   JUNCTION     0.90     1.76    18.00     0  03:08        1.76
  29                   JUNCTION     1.10     2.11    18.00     0  03:09        2.11
  30                   JUNCTION     0.71     1.34    18.00     0  03:08        1.34
  31                   JUNCTION     0.81     1.66    18.00     0  03:09        1.66
  32                   JUNCTION     0.69     1.46    18.00     0  03:09        1.46
  33                   JUNCTION     0.60     1.27    18.00     0  03:11        1.27
  34                   JUNCTION     0.49     1.05    18.00     0  03:11        1.05
  35                   JUNCTION     0.77     1.51    18.00     0  03:24        1.51
  36                   JUNCTION     0.87     1.70    18.00     0  03:08        1.70
  37                   JUNCTION     1.00     1.90    18.00     0  03:06        1.90
  38                   JUNCTION     0.65     1.78    18.00     0  04:25        1.78
  39                   JUNCTION     0.48     1.46    18.00     0  04:42        1.46
  40                   JUNCTION     0.69     1.32    18.00     0  03:09        1.32
  41                   JUNCTION     0.00     0.00    16.95     0  00:00        0.00
  42                   JUNCTION     0.00     0.00    16.95     0  00:00        0.00
  43                   JUNCTION     0.00     0.00    16.95     0  00:00        0.00
  44                   JUNCTION     0.44     1.05    18.00     0  03:08        1.05
  45                   JUNCTION     0.00     0.00    16.95     0  00:00        0.00
  46                   JUNCTION     0.00     0.00    16.95     0  00:00        0.00
  49                   JUNCTION     0.48     1.15    18.00     0  03:09        1.15
  50                   JUNCTION     0.53     1.20    18.00     0  03:08        1.20
  51                   JUNCTION     0.34     0.65    17.05     0  03:55        0.65
  52                   JUNCTION     0.08     0.18    16.58     0  04:30        0.18
  53                   JUNCTION     0.05     0.26    17.11     0  03:05        0.26
  54                   JUNCTION     0.72     1.20    18.00     0  03:04        1.20
  55                   JUNCTION     0.03     0.15    16.95     0  03:05        0.15
  56                   JUNCTION     0.94     1.60    18.00     0  02:57        1.60
  57                   JUNCTION     0.04     0.19    16.79     0  03:05        0.19
  58                   JUNCTION     0.78     1.20    18.00     0  02:57        1.20
  59                   JUNCTION     0.66     1.33    18.00     0  03:08        1.33
  60                   JUNCTION     0.62     1.20    18.00     0  03:08        1.20
  61                   JUNCTION     0.61     1.15    18.00     0  03:08        1.15
  62                   JUNCTION     0.62     1.20    18.00     0  03:08        1.20
  63                   JUNCTION     0.53     1.05    18.00     0  03:07        1.05
  64                   JUNCTION     0.61     1.15    18.00     0  03:08        1.15
  65                   JUNCTION     0.43     1.33    18.00     0  04:47        1.33
  66                   JUNCTION     0.61     1.15    18.00     0  03:07        1.15
  47                   OUTFALL      0.00     0.01    14.92     0  02:57        0.01
  48                   OUTFALL      0.00     0.00    16.09     0  03:57        0.00
  
  
  *******************
  Node Inflow Summary
  *******************
  
  -------------------------------------------------------------------------------------------------
                                  Maximum  Maximum                  Lateral       Total        Flow
                                  Lateral    Total  Time of Max      Inflow      Inflow     Balance
                                   Inflow   Inflow   Occurrence      Volume      Volume       Error
  Node                 Type           LPS      LPS  days hr:min    10^6 ltr    10^6 ltr     Percent
  -------------------------------------------------------------------------------------------------
  1                    JUNCTION      0.00    89.76     0  03:07           0      0.0644      50.569
  2                    JUNCTION      0.00    90.49     0  03:05           0      0.0812      26.979
  3                    JUNCTION      0.00    90.28     0  03:05           0       0.088       9.699
  4                    JUNCTION      0.00  1469.13     0  05:22           0       0.214      24.101
  5                    JUNCTION      0.00   325.83     0  05:18           0       0.118      10.855
  6                    JUNCTION      0.00     1.33     0  05:40           0      0.0118   11805.829 ltr
  7                    JUNCTION      0.00    79.01     0  03:06           0      0.0419     387.796
  8                    JUNCTION      0.00     0.09     0  04:57           0    0.000839     839.236 ltr
  9                    JUNCTION      0.00     0.14     0  05:42           0     0.00132    1323.904 ltr
  10                   JUNCTION      0.00   589.78     0  05:41           0      0.0949     -17.656
  11                   JUNCTION      0.00   240.14     0  03:03           0       0.122      12.898
  12                   JUNCTION      0.00     0.00     0  00:00           0           0       0.000 ltr
  13                   JUNCTION      0.00     0.69     0  05:40           0     0.00653    6531.258 ltr
  14                   JUNCTION      0.00    37.56     0  03:06           0      0.0391     617.375
  15                   JUNCTION      0.00     0.68     0  06:00           0     0.00646    6456.988 ltr
  16                   JUNCTION      0.00   240.16     0  03:03           0       0.108     190.978
  17                   JUNCTION      0.00    34.98     0  03:06           0      0.0379    6097.081
  18                   JUNCTION      0.00    69.25     0  03:05           0      0.0509    2644.598
  19                   JUNCTION      0.00     0.15     0  06:00           0     0.00134    1335.214 ltr
  20                   JUNCTION      0.00     0.57     0  05:59           0      0.0055    5479.120 ltr
  21                   JUNCTION      0.00     0.46     0  06:00           0      0.0057    5702.235 ltr
  22                   JUNCTION      0.00   138.17     0  03:05           0      0.0873      40.752
  23                   JUNCTION      0.00    29.82     0  02:55           0       0.094     160.800
  24                   JUNCTION      0.00   298.66     0  03:05           0        0.14      36.270
  25                   JUNCTION      0.00   278.40     0  03:08           0      0.0977      19.467
  26                   JUNCTION      0.00   106.32     0  05:08           0      0.0155      38.957
  27                   JUNCTION      0.00   374.04     0  03:05           0       0.174      12.228
  28                   JUNCTION      0.00   276.42     0  03:06           0       0.149      26.792
  29                   JUNCTION      0.00   253.22     0  03:06           0       0.118      16.010
  30                   JUNCTION      0.00   171.71     0  03:05           0       0.132      10.031
  31                   JUNCTION      0.00    67.49     0  03:09           0       0.021      22.996
  32                   JUNCTION      0.00    67.70     0  03:09           0      0.0165      23.404
  33                   JUNCTION      0.00    54.30     0  03:10           0      0.0118      39.180
  34                   JUNCTION      0.00    45.29     0  03:10           0     0.00761      20.711
  35                   JUNCTION      0.00   159.44     0  03:05           0      0.0946      17.628
  36                   JUNCTION      0.00   245.11     0  03:07           0      0.0818      12.509
  37                   JUNCTION      0.00   141.52     0  03:06           0      0.0585      30.796
  38                   JUNCTION      0.00   454.01     0  05:42           0      0.0439       3.149
  39                   JUNCTION      0.00  1114.85     0  05:58           0       0.183     182.187
  40                   JUNCTION      0.00   141.03     0  03:06           0      0.0659      18.483
  41                   JUNCTION      0.00     0.00     0  00:00           0           0       0.000 ltr
  42                   JUNCTION      0.00     0.00     0  00:00           0           0       0.000 ltr
  43                   JUNCTION      0.00     0.00     0  00:00           0           0       0.000 ltr
  44                   JUNCTION      0.00   298.84     0  05:27           0      0.0501      73.740
  45                   JUNCTION      0.00     0.00     0  00:00           0           0       0.000 ltr
  46                   JUNCTION      0.00     0.00     0  00:00           0           0       0.000 ltr
  49                   JUNCTION    118.13   285.73     0  05:18       0.169       0.207     -14.757
  50                   JUNCTION     68.84   363.14     0  05:27       0.182       0.223      -5.784
  51                   JUNCTION     25.06    25.06     0  03:03      0.0117      0.0117    1178.865
  52                   JUNCTION     38.92    38.92     0  03:04      0.0419      0.0419       7.028
  53                   JUNCTION     90.79    90.79     0  03:05      0.0868      0.0868       0.878
  54                   JUNCTION    250.16   250.16     0  03:05       0.438       0.438       0.398
  55                   JUNCTION     35.69    35.69     0  03:04      0.0304      0.0304      -0.012
  56                   JUNCTION    150.90   150.90     0  03:05       0.176       0.176       8.278
  57                   JUNCTION     69.37    69.37     0  03:04      0.0503      0.0503      -0.033
  58                   JUNCTION     97.27    97.27     0  03:03       0.233       0.233       2.349
  59                   JUNCTION     76.72   219.72     0  03:08       0.118       0.127       2.800
  60                   JUNCTION    118.56   118.56     0  03:04      0.0947      0.0956       8.928
  61                   JUNCTION    113.34   113.34     0  03:05       0.118        0.12       3.266
  62                   JUNCTION    127.74   127.74     0  03:13       0.195       0.196       0.749
  63                   JUNCTION     71.45    78.27     0  03:10       0.101        0.11       2.092
  64                   JUNCTION    159.44   159.44     0  03:05       0.228       0.228       2.419
  65                   JUNCTION     34.36   438.63     0  05:42      0.0791       0.103     -32.153
  66                   JUNCTION    140.98   140.98     0  03:06       0.194       0.194       1.373
  47                   OUTFALL       0.00     0.71     0  02:57           0     0.00959       0.000
  48                   OUTFALL       0.00     0.31     0  03:57           0     0.00322       0.000
  
  
  **********************
  Node Surcharge Summary
  **********************
  
  Surcharging occurs when water rises above the top of the highest conduit.
  ---------------------------------------------------------------------
                                               Max. Height   Min. Depth
                                   Hours       Above Crown    Below Rim
  Node                 Type      Surcharged         Meters       Meters
  ---------------------------------------------------------------------
  1                    JUNCTION        2.55          0.031        1.164
  4                    JUNCTION        2.55          0.881        0.000
  5                    JUNCTION        2.55          0.966        0.000
  10                   JUNCTION        2.85          0.845        0.000
  11                   JUNCTION        2.96          0.912        0.000
  16                   JUNCTION        2.94          1.067        0.000
  22                   JUNCTION        2.91          1.899        0.000
  23                   JUNCTION        3.07          0.960        0.000
  24                   JUNCTION        2.90          1.844        0.000
  25                   JUNCTION        2.86          0.889        0.000
  26                   JUNCTION        2.88          0.800        0.000
  27                   JUNCTION        2.89          1.274        0.000
  28                   JUNCTION        2.87          1.009        0.000
  29                   JUNCTION        2.89          1.060        0.000
  30                   JUNCTION        2.89          0.880        0.000
  31                   JUNCTION        2.87          1.410        0.000
  32                   JUNCTION        2.85          1.207        0.000
  33                   JUNCTION        2.83          1.024        0.000
  34                   JUNCTION        2.82          0.800        0.000
  35                   JUNCTION        2.87          0.978        0.000
  36                   JUNCTION        2.88          1.099        0.000
  37                   JUNCTION        2.89          0.947        0.000
  38                   JUNCTION        2.65          0.977        0.000
  39                   JUNCTION        2.61          0.858        0.000
  40                   JUNCTION        2.89          0.918        0.000
  44                   JUNCTION        2.79          0.800        0.000
  49                   JUNCTION        2.54          0.800        0.000
  50                   JUNCTION        2.78          0.800        0.000
  54                   JUNCTION        2.98          0.800        0.000
  56                   JUNCTION        3.05          0.800        0.000
  58                   JUNCTION        3.06          0.800        0.000
  59                   JUNCTION        2.86          0.800        0.000
  60                   JUNCTION        2.86          0.800        0.000
  61                   JUNCTION        2.92          0.800        0.000
  62                   JUNCTION        2.88          0.800        0.000
  63                   JUNCTION        2.88          0.800        0.000
  64                   JUNCTION        2.94          0.800        0.000
  65                   JUNCTION        2.61          0.800        0.000
  66                   JUNCTION        2.92          0.800        0.000
  
  
  *********************
  Node Flooding Summary
  *********************
  
  Flooding refers to all water that overflows a node, whether it ponds or not.
  --------------------------------------------------------------------------
                                                             Total   Maximum
                                 Maximum   Time of Max       Flood    Ponded
                        Hours       Rate    Occurrence      Volume     Depth
  Node                 Flooded       LPS   days hr:min    10^6 ltr    Meters
  --------------------------------------------------------------------------
  4                       1.56    352.55      0  05:19       0.017     0.000
  5                       0.86    161.95      0  05:18       0.023     0.000
  10                      0.83    319.67      0  05:42       0.031     0.000
  11                      0.93     10.53      0  03:04       0.000     0.000
  16                      1.67    214.84      0  03:04       0.027     0.000
  22                      2.02     21.35      0  03:08       0.054     0.000
  23                      3.05     17.29      0  02:57       0.021     0.000
  24                      1.99     42.50      0  03:08       0.014     0.000
  25                      0.93     22.97      0  03:08       0.004     0.000
  26                      2.51     56.51      0  03:07       0.011     0.000
  27                      0.54     32.89      0  03:08       0.001     0.000
  28                      0.58     40.00      0  03:08       0.002     0.000
  29                      1.03     15.37      0  03:12       0.008     0.000
  30                      0.91     15.46      0  03:08       0.005     0.000
  31                      0.90      3.23      0  03:11       0.000     0.000
  32                      0.85     40.42      0  03:09       0.001     0.000
  33                      0.49      5.55      0  03:11       0.000     0.000
  34                      1.86     32.90      0  03:11       0.006     0.000
  35                      1.04      1.92      0  05:19       0.001     0.000
  36                      1.22      6.96      0  03:08       0.001     0.000
  37                      2.49     87.03      0  03:06       0.014     0.000
  38                      0.05    301.89      0  05:42       0.017     0.000
  40                      1.90      3.10      0  04:27       0.003     0.000
  44                      2.15    173.20      0  05:38       0.024     0.000
  49                      1.80    143.01      0  05:18       0.101     0.000
  50                      2.07    181.58      0  05:27       0.146     0.000
  54                      2.94    205.47      0  03:06       0.313     0.000
  56                      2.16    150.60      0  03:05       0.161     0.000
  58                      3.05     88.24      0  03:03       0.133     0.000
  59                      1.61    150.53      0  03:08       0.095     0.000
  60                      0.93     87.85      0  03:08       0.031     0.000
  61                      1.42     53.97      0  03:10       0.041     0.000
  62                      1.88    112.50      0  03:13       0.138     0.000
  63                      2.34     78.01      0  03:10       0.101     0.000
  64                      2.07     85.64      0  03:10       0.128     0.000
  65                      0.08      9.78      0  05:57       0.001     0.000
  66                      2.48     90.37      0  03:09       0.125     0.000
  
  
  ***********************
  Outfall Loading Summary
  ***********************
  
  -----------------------------------------------------------
                         Flow       Avg       Max       Total
                         Freq      Flow      Flow      Volume
  Outfall Node           Pcnt       LPS       LPS    10^6 ltr
  -----------------------------------------------------------
  47                    86.77      0.61      0.71       0.010
  48                    54.81      0.30      0.31       0.003
  -----------------------------------------------------------
  System                70.79      0.90      1.02       0.013
  
  
  ********************
  Link Flow Summary
  ********************
  
  -----------------------------------------------------------------------------
                                 Maximum  Time of Max   Maximum    Max/    Max/
                                  |Flow|   Occurrence   |Veloc|    Full    Full
  Link                 Type          LPS  days hr:min     m/sec    Flow   Depth
  -----------------------------------------------------------------------------
  64                   CONDUIT      0.71     0  02:57      0.00    7.22    0.50
  30                   CONDUIT     29.82     0  02:55      0.73    0.25    1.00
  31                   CONDUIT      0.46     0  06:00      0.01    4.65    0.58
  27                   CONDUIT      0.01     0  06:00      0.00    0.06    0.16
  28                   CONDUIT      0.00     0  03:06      0.00    0.00    0.02
  63                   CONDUIT      0.00     0  00:00      0.00    0.00    0.00
  29                   CONDUIT      0.57     0  05:59      0.02    5.81    0.58
  24                   CONDUIT      0.15     0  06:00      0.00    1.48    0.47
  62                   CONDUIT      0.00     0  00:00      0.00    0.00    0.00
  32                   CONDUIT    138.17     0  03:05      0.67    0.25    1.00
  23                   CONDUIT      0.17     0  06:00      0.00    1.68    0.93
  26                   CONDUIT     69.25     0  03:05      0.97    0.23    0.30
  36                   CONDUIT    285.96     0  03:05      0.90    0.53    1.00
  21                   CONDUIT      0.66     0  04:08      0.05    6.72    0.98
  22                   CONDUIT     34.47     0  03:06      0.89    0.28    0.35
  37                   CONDUIT    243.82     0  03:06      1.36    0.82    1.00
  43                   CONDUIT    157.43     0  03:05      1.43    1.30    1.00
  19                   CONDUIT      0.37     0  02:53      0.02    3.77    0.58
  20                   CONDUIT    240.16     0  03:03      1.93    1.98    1.00
  38                   CONDUIT    189.80     0  03:08      1.20    0.64    1.00
  39                   CONDUIT    151.26     0  03:05      0.87    0.51    1.00
  44                   CONDUIT    172.23     0  03:06      1.44    1.42    1.00
  55                   CONDUIT     67.49     0  03:09      1.37    1.59    1.00
  9                    CONDUIT      0.34     0  06:00      0.00    3.44    0.58
  15                   CONDUIT    240.14     0  03:03      1.91    1.98    1.00
  33                   CONDUIT    117.21     0  03:05      1.26    0.97    1.00
  34                   CONDUIT    214.89     0  03:08      1.05    0.94    1.00
  49                   CONDUIT    161.56     0  03:06      1.28    0.70    1.00
  45                   CONDUIT    113.34     0  03:05      1.18    1.15    1.00
  46                   CONDUIT     63.81     0  03:07      0.75    0.53    1.00
  56                   CONDUIT     67.70     0  03:09      1.47    1.60    1.00
  10                   CONDUIT     37.56     0  03:06      0.73    0.07    0.27
  11                   CONDUIT      0.26     0  06:00      0.01    2.66    0.58
  48                   CONDUIT    159.44     0  03:05      1.72    1.62    1.00
  57                   CONDUIT     54.30     0  03:10      1.49    1.28    1.00
  12                   CONDUIT      0.34     0  05:40      0.00    3.49    0.58
  13                   CONDUIT      0.09     0  03:55      0.03    1.70    0.40
  47                   CONDUIT     45.29     0  03:10      1.17    1.07    1.00
  4                    CONDUIT    703.81     0  05:22      5.60    5.81    1.00
  5                    CONDUIT      0.78     0  05:40      0.01    7.96    0.82
  3                    CONDUIT    765.32     0  05:22      7.95    7.77    1.00
  6                    CONDUIT      0.55     0  05:21      0.01    5.57    0.82
  14                   CONDUIT      0.00     0  00:00      0.00    0.00    0.00
  7                    CONDUIT     79.01     0  03:06      0.78    0.26    1.00
  40                   CONDUIT      0.09     0  04:57      0.00    1.61    0.49
  59                   CONDUIT      0.00     0  00:00      0.00    0.00    0.00
  1                    CONDUIT     89.76     0  03:07      0.96    0.30    0.94
  18                   CONDUIT      0.00     0  02:45      0.00    0.03    0.04
  2                    CONDUIT     90.49     0  03:05      0.95    0.30    0.79
  58                   CONDUIT      0.00     0  00:00      0.00    0.00    0.00
  17                   CONDUIT      0.14     0  05:42      0.00    2.49    0.52
  60                   CONDUIT      0.00     0  00:00      0.00    0.00    0.00
  8                    CONDUIT     90.28     0  03:05      1.27    0.92    0.69
  16                   CONDUIT    589.78     0  05:41      4.69    4.87    1.00
  25                   CONDUIT      1.61     0  05:33      0.17   29.61    1.00
  61                   CONDUIT    298.84     0  05:27      6.09    7.06    1.00
  65                   CONDUIT      0.31     0  03:57      0.00    5.68    0.50
  42                   CONDUIT    106.32     0  05:08      2.17    2.51    1.00
  41                   CONDUIT     55.16     0  03:07      1.13    1.30    1.00
  51                   CONDUIT    135.31     0  03:06      1.19    1.12    1.00
  54                   CONDUIT     12.62     0  05:08      0.03  232.16    1.00
  50                   CONDUIT    141.03     0  03:06      1.53    1.43    1.00
  53                   CONDUIT    453.79     0  05:42      1.60    1.52    1.00
  52                   CONDUIT   1114.82     0  05:58      5.05    4.86    1.00
  
  
  ***************************
  Flow Classification Summary
  ***************************
  
  -------------------------------------------------------------------------------------
                      Adjusted    ---------- Fraction of Time in Flow Class ---------- 
                       /Actual         Up    Down  Sub   Sup   Up    Down  Norm  Inlet 
  Conduit               Length    Dry  Dry   Dry   Crit  Crit  Crit  Crit  Ltd   Ctrl  
  -------------------------------------------------------------------------------------
  64                      1.00   0.01  0.00  0.00  0.99  0.00  0.00  0.00  0.00  0.00
  30                      1.00   0.00  0.00  0.00  0.68  0.00  0.00  0.32  0.02  0.00
  31                      1.00   0.01  0.05  0.00  0.94  0.00  0.00  0.00  0.00  0.00
  27                      1.00   0.06  0.31  0.00  0.63  0.00  0.00  0.00  0.37  0.00
  28                      1.00   0.37  0.00  0.00  0.00  0.00  0.00  0.63  0.00  0.00
  63                      1.00   1.00  0.00  0.00  0.00  0.00  0.00  0.00  0.00  0.00
  29                      1.00   0.35  0.00  0.00  0.65  0.00  0.00  0.00  0.00  0.00
  24                      1.00   0.33  0.00  0.00  0.67  0.00  0.00  0.00  0.00  0.00
  62                      1.00   1.00  0.00  0.00  0.00  0.00  0.00  0.00  0.00  0.00
  32                      1.00   0.34  0.00  0.00  0.60  0.00  0.00  0.06  0.00  0.00
  23                      1.00   0.32  0.00  0.00  0.67  0.00  0.00  0.00  0.01  0.00
  26                      1.00   0.36  0.00  0.00  0.00  0.00  0.00  0.64  0.00  0.00
  36                      1.00   0.33  0.00  0.00  0.66  0.01  0.00  0.00  0.00  0.00
  21                      1.00   0.32  0.00  0.00  0.68  0.00  0.00  0.00  0.00  0.00
  22                      1.00   0.36  0.00  0.00  0.00  0.00  0.00  0.64  0.00  0.00
  37                      1.00   0.36  0.00  0.00  0.53  0.00  0.00  0.11  0.00  0.00
  43                      1.00   0.33  0.00  0.00  0.53  0.00  0.00  0.14  0.00  0.00
  19                      1.00   0.32  0.02  0.00  0.66  0.00  0.00  0.00  0.00  0.00
  20                      1.00   0.32  0.00  0.00  0.56  0.00  0.00  0.12  0.00  0.00
  38                      1.00   0.35  0.00  0.00  0.53  0.00  0.00  0.12  0.00  0.00
  39                      1.00   0.36  0.01  0.00  0.63  0.00  0.00  0.00  0.01  0.00
  44                      1.00   0.33  0.00  0.00  0.52  0.00  0.00  0.16  0.00  0.00
  55                      1.00   0.39  0.09  0.00  0.52  0.01  0.00  0.00  0.00  0.00
  9                       1.00   0.35  0.01  0.00  0.64  0.00  0.00  0.00  0.01  0.00
  15                      1.00   0.32  0.00  0.00  0.66  0.02  0.00  0.00  0.00  0.00
  33                      1.00   0.35  0.00  0.00  0.51  0.00  0.00  0.14  0.00  0.00
  34                      1.00   0.36  0.00  0.00  0.57  0.00  0.00  0.08  0.01  0.00
  49                      1.00   0.36  0.00  0.00  0.53  0.00  0.00  0.11  0.00  0.00
  45                      1.00   0.32  0.00  0.00  0.59  0.00  0.00  0.08  0.00  0.00
  46                      1.00   0.35  0.01  0.00  0.64  0.00  0.00  0.00  0.01  0.00
  56                      1.00   0.48  0.03  0.00  0.48  0.01  0.00  0.00  0.00  0.00
  10                      1.00   0.36  0.00  0.00  0.39  0.00  0.00  0.25  0.04  0.00
  11                      1.00   0.36  0.00  0.00  0.64  0.00  0.00  0.00  0.02  0.00
  48                      1.00   0.36  0.00  0.00  0.50  0.00  0.00  0.15  0.00  0.00
  57                      1.00   0.51  0.01  0.00  0.48  0.01  0.00  0.00  0.00  0.00
  12                      1.00   0.36  0.00  0.00  0.64  0.00  0.00  0.00  0.00  0.00
  13                      1.00   0.36  0.00  0.00  0.00  0.00  0.00  0.64  0.00  0.00
  47                      1.00   0.52  0.01  0.00  0.47  0.00  0.00  0.00  0.00  0.00
  4                       1.00   0.36  0.00  0.00  0.50  0.00  0.00  0.14  0.00  0.00
  5                       1.00   0.36  0.01  0.00  0.63  0.00  0.00  0.00  0.00  0.00
  3                       1.00   0.35  0.00  0.00  0.48  0.00  0.00  0.17  0.00  0.00
  6                       1.00   0.36  0.00  0.00  0.64  0.00  0.00  0.00  0.00  0.00
  14                      1.00   1.00  0.00  0.00  0.00  0.00  0.00  0.00  0.00  0.00
  7                       1.00   0.35  0.00  0.00  0.55  0.00  0.00  0.10  0.00  0.00
  40                      1.00   0.32  0.00  0.00  0.58  0.00  0.00  0.10  0.00  0.00
  59                      1.00   1.00  0.00  0.00  0.00  0.00  0.00  0.00  0.00  0.00
  1                       1.00   0.34  0.00  0.00  0.63  0.03  0.00  0.00  0.00  0.00
  18                      1.00   0.31  0.00  0.00  0.69  0.00  0.00  0.00  0.00  0.00
  2                       1.00   0.34  0.00  0.00  0.66  0.01  0.00  0.00  0.01  0.00
  58                      1.00   1.00  0.00  0.00  0.00  0.00  0.00  0.00  0.00  0.00
  17                      1.00   0.31  0.00  0.00  0.69  0.00  0.00  0.00  0.00  0.00
  60                      1.00   1.00  0.00  0.00  0.00  0.00  0.00  0.00  0.00  0.00
  8                       1.00   0.34  0.00  0.00  0.40  0.00  0.00  0.26  0.44  0.00
  16                      1.00   0.36  0.00  0.00  0.52  0.00  0.00  0.12  0.00  0.00
  25                      1.00   0.31  0.00  0.00  0.67  0.00  0.00  0.02  0.00  0.00
  61                      1.00   0.47  0.01  0.00  0.52  0.00  0.00  0.00  0.00  0.00
  65                      1.00   0.36  0.00  0.00  0.64  0.00  0.00  0.00  0.00  0.00
  42                      1.00   0.47  0.01  0.00  0.52  0.00  0.00  0.00  0.00  0.00
  41                      1.00   0.36  0.00  0.00  0.53  0.00  0.00  0.12  0.00  0.00
  51                      1.00   0.36  0.00  0.00  0.53  0.00  0.00  0.11  0.00  0.00
  54                      1.00   0.37  0.00  0.00  0.60  0.00  0.00  0.03  0.01  0.00
  50                      1.00   0.36  0.00  0.00  0.53  0.00  0.00  0.12  0.00  0.00
  53                      1.00   0.36  0.00  0.00  0.54  0.00  0.00  0.10  0.01  0.00
  52                      1.00   0.36  0.00  0.00  0.47  0.00  0.00  0.17  0.00  0.00
  
  
  *************************
  Conduit Surcharge Summary
  *************************
  
  ----------------------------------------------------------------------------
                                                           Hours        Hours 
                         --------- Hours Full --------   Above Full   Capacity
  Conduit                Both Ends  Upstream  Dnstream   Normal Flow   Limited
  ----------------------------------------------------------------------------
  64                          0.01      3.71      0.01      4.33         0.01
  30                          3.06      3.06      3.07      0.01         0.01
  31                          0.01      0.01      3.71      4.05         0.01
  29                          0.01      2.91      0.01      2.97         0.01
  24                          0.01      0.01      0.01      2.63         0.01
  32                          2.90      2.90      2.91      0.01         0.01
  23                          0.01      0.01      0.01      1.91         0.01
  36                          2.90      2.90      2.90      0.01         0.01
  21                          0.01      2.96      0.01      3.08         0.01
  37                          2.88      2.88      2.89      0.01         0.01
  43                          2.90      2.90      2.90      0.04         0.01
  19                          0.01      0.01      2.96      3.04         0.01
  20                          2.94      2.96      2.94      0.06         0.01
  38                          2.87      2.87      2.87      0.01         0.01
  39                          2.87      2.87      2.88      0.01         0.01
  44                          2.89      2.92      2.89      0.08         0.02
  55                          2.87      2.87      2.90      0.05         0.01
  9                           0.01      2.13      0.01      2.81         0.01
  15                          2.96      2.98      2.96      0.08         0.03
  33                          2.86      2.86      2.87      0.01         0.01
  34                          2.86      2.86      2.86      0.01         0.01
  49                          2.87      2.87      2.87      0.01         0.01
  45                          2.92      2.92      2.92      0.07         0.04
  46                          2.87      2.87      2.89      0.01         0.01
  56                          2.85      2.85      2.87      0.03         0.01
  11                          0.01      0.01      2.13      2.77         0.01
  48                          2.87      2.94      2.87      0.09         0.01
  57                          2.83      2.83      2.85      0.02         0.01
  12                          0.01      2.89      0.01      2.91         0.01
  13                          0.01      0.01      0.01      2.86         0.01
  47                          2.82      2.82      2.83      0.01         0.01
  4                           2.52      2.54      2.55      0.09         0.12
  5                           0.01      0.01      2.89      2.94         0.01
  3                           2.52      2.54      2.54      0.17         0.08
  6                           0.01      2.74      0.01      2.92         0.01
  7                           2.56      2.56      2.74      0.01         0.01
  40                          0.01      0.01      0.01      2.72         0.01
  1                           0.01      0.01      2.56      0.01         0.01
  17                          0.01      2.86      0.01      2.89         0.01
  16                          2.77      2.77      2.86      0.05         0.10
  25                          2.79      2.99      2.86      0.78         0.04
  61                          2.76      2.76      2.85      0.07         0.12
  65                          0.01      2.90      0.01      2.92         0.01
  42                          2.88      2.88      2.89      0.02         0.02
  41                          2.88      2.88      2.89      0.01         0.01
  51                          2.89      2.89      2.90      0.02         0.01
  54                          2.65      2.65      2.89      2.63         0.01
  50                          2.89      2.92      2.89      0.05         0.01
  53                          2.61      2.61      2.65      0.03         0.12
  52                          2.61      2.61      2.61      0.05         0.22
  

  Analysis begun on:  Thu Jun 27 17:22:27 2024
  Analysis ended on:  Thu Jun 27 17:22:27 2024
  Total elapsed time: < 1 sec