
  EPA STORM WATER MANAGEMENT MODEL - VERSION 5.1 (Build 5.1.015)
  --------------------------------------------------------------

  
  *********************************************************
  NOTE: The summary statistics displayed in this report are
  based on results found at every computational time step,  
  not just on results from each reporting time step.
  *********************************************************
  
  ****************
  Analysis Options
  ****************
  Flow Units ............... LPS
  Process Models:
    Rainfall/Runoff ........ YES
    RDII ................... NO
    Snowmelt ............... NO
    Groundwater ............ NO
    Flow Routing ........... YES
    Ponding Allowed ........ YES
    Water Quality .......... NO
  Infiltration Method ...... HORTON
  Flow Routing Method ...... DYNWAVE
  Surcharge Method ......... EXTRAN
  Starting Date ............ 10/12/2020 00:00:00
  Ending Date .............. 10/12/2020 06:00:00
  Antecedent Dry Days ...... 0.0
  Report Time Step ......... 00:01:00
  Wet Time Step ............ 00:01:00
  Dry Time Step ............ 00:30:00
  Routing Time Step ........ 60.00 sec
  Variable Time Step ....... YES
  Maximum Trials ........... 8
  Number of Threads ........ 1
  Head Tolerance ........... 0.001500 m
  
  
  **************************        Volume         Depth
  Runoff Quantity Continuity     hectare-m            mm
  **************************     ---------       -------
  Initial LID Storage ......         0.026         3.763
  Total Precipitation ......         0.831       120.663
  Evaporation Loss .........         0.000         0.000
  Infiltration Loss ........         0.081        11.823
  Surface Runoff ...........         0.446        64.792
  Final Storage ............         0.330        47.871
  Continuity Error (%) .....        -0.048
  
  
  **************************        Volume        Volume
  Flow Routing Continuity        hectare-m      10^6 ltr
  **************************     ---------     ---------
  Dry Weather Inflow .......         0.000         0.000
  Wet Weather Inflow .......         0.447         4.474
  Groundwater Inflow .......         0.000         0.000
  RDII Inflow ..............         0.000         0.000
  External Inflow ..........         0.000         0.000
  External Outflow .........         0.001         0.013
  Flooding Loss ............         0.393         3.931
  Evaporation Loss .........         0.000         0.000
  Exfiltration Loss ........         0.000         0.000
  Initial Stored Volume ....         0.000         0.000
  Final Stored Volume ......         0.039         0.386
  Continuity Error (%) .....         3.243
  
  
  *************************
  Highest Continuity Errors
  *************************
  Node 15 (100.00%)
  Node 20 (100.00%)
  Node 38 (100.00%)
  Node 28 (99.98%)
  Node 2 (99.93%)
  
  
  ***************************
  Time-Step Critical Elements
  ***************************
  Link 3 (22.89%)
  Link 43 (16.38%)
  Link 46 (15.90%)
  Link 15 (7.47%)
  Link 30 (3.50%)
  
  
  ********************************
  Highest Flow Instability Indexes
  ********************************
  Link 43 (18)
  Link 44 (6)
  Link 55 (6)
  Link 56 (5)
  Link 57 (5)
  
  
  *************************
  Routing Time Step Summary
  *************************
  Minimum Time Step           :     2.44 sec
  Average Time Step           :    30.42 sec
  Maximum Time Step           :    60.00 sec
  Percent in Steady State     :    11.43
  Average Iterations per Step :     3.61
  Percent Not Converging      :    17.33
  Time Step Frequencies       :
     60.000 - 23.031 sec      :    57.80 %
     23.031 -  8.841 sec      :    40.45 %
      8.841 -  3.393 sec      :     1.59 %
      3.393 -  1.303 sec      :     0.16 %
      1.303 -  0.500 sec      :     0.00 %
  
  
  ***************************
  Subcatchment Runoff Summary
  ***************************
  
  ------------------------------------------------------------------------------------------------------------------------------
                            Total      Total      Total      Total     Imperv       Perv      Total       Total     Peak  Runoff
                           Precip      Runon       Evap      Infil     Runoff     Runoff     Runoff      Runoff   Runoff   Coeff
  Subcatchment                 mm         mm         mm         mm         mm         mm         mm    10^6 ltr      LPS
  ------------------------------------------------------------------------------------------------------------------------------
  67                       120.66       0.00       0.00       6.38     106.76      17.49      81.54        0.45   156.65   0.676
  68                       120.66       0.00       0.00      27.07      74.11      17.53      17.53        0.18    68.84   0.145
  69                       120.66       0.00       0.00       8.59      99.63       1.94      44.64        0.08    40.92   0.370
  70                       120.66       0.00       0.00       8.15     102.92      10.12      54.23        0.15    56.87   0.449
  71                       120.66       0.00       0.00       3.87     110.70       2.16     112.86        0.27   111.93   0.935
  72                       120.66       0.00       0.00       7.37     106.75      79.28      79.28        0.44   250.16   0.657
  73                       120.66       0.00       0.00       8.28     102.44       7.38      51.28        0.14    53.34   0.425
  74                       120.66       0.00       0.00       3.87     110.70       2.16     112.86        0.42   173.54   0.935
  75                       120.66       0.00       0.00       6.99     104.90       6.49      69.43        0.26   104.96   0.575
  76                       120.66       0.00       0.00       3.87     110.70       2.16     112.86        0.23    97.27   0.935
  77                       120.66       0.00       0.00      10.36      99.91      29.08      29.08        0.12    76.72   0.241
  78                       120.66       0.00       0.00       3.87     110.70       2.16     112.86        0.38   159.16   0.935
  79                       120.66       0.00       0.00       3.87     110.70       2.16     112.86        0.32   135.05   0.935
  80                       120.66       0.00       0.00       8.43     103.43      27.35      55.56        0.33   147.93   0.460
  81                       120.66       0.00       0.00       9.71     101.69      41.29      41.29        0.10    71.45   0.342
  82                       120.66       0.00       0.00       8.46     104.65      63.08      63.08        0.23   159.44   0.523
  83                       120.66       0.00       0.00      54.12      35.38      27.27      62.65        0.16    60.95   0.519
  84                       120.66       0.00       0.00       8.72     104.07      58.76      58.76        0.19   140.98   0.487
  

  ***********************
  LID Performance Summary
  ***********************

  --------------------------------------------------------------------------------------------------------------------
                                         Total      Evap     Infil   Surface    Drain    Initial     Final  Continuity
                                        Inflow      Loss      Loss   Outflow   Outflow   Storage   Storage       Error
  Subcatchment      LID Control             mm        mm        mm        mm        mm        mm        mm           %
  --------------------------------------------------------------------------------------------------------------------
  67                1                  1302.50      0.00     73.33    432.35      0.00     72.00    868.48        0.02
  68                1                   890.26      0.00     63.43     67.84      0.00     72.00    830.95        0.00
  69                1                   657.52      0.00     48.46      0.00      0.00     72.00    681.07       -0.00
  70                1                   946.12      0.00     64.02    114.72      0.00     72.00    839.30        0.01
  72                1                  3069.15      0.00    100.59   2149.39      0.00     72.00    891.23       -0.00
  73                1                   894.25      0.00     62.21     71.73      0.00     72.00    832.25        0.01
  75                1                   909.71      0.00     62.67     84.48      0.00     72.00    834.50        0.01
  77                1                  1131.78      0.00     69.60    275.81      0.00     72.00    858.15        0.02
  80                1                  1249.55      0.00     72.31    383.00      0.00     72.00    865.95        0.02
  81                1                  1352.65      0.00     74.71    479.08      0.00     72.00    870.49        0.03
  82                1                  2007.49      0.00     86.62   1108.53      0.00     72.00    884.00        0.02
  84                1                  1833.68      0.00     83.75    940.36      0.00     72.00    881.21        0.02
  
  ******************
  Node Depth Summary
  ******************
  
  ---------------------------------------------------------------------------------
                                 Average  Maximum  Maximum  Time of Max    Reported
                                   Depth    Depth      HGL   Occurrence   Max Depth
  Node                 Type       Meters   Meters   Meters  days hr:min      Meters
  ---------------------------------------------------------------------------------
  1                    JUNCTION     0.00     0.00    16.20     0  05:58        0.00
  2                    JUNCTION     0.02     0.05    16.36     0  05:58        0.05
  3                    JUNCTION     1.08     1.59    18.00     0  01:47        1.59
  4                    JUNCTION     1.01     1.28    18.00     0  01:17        1.28
  5                    JUNCTION     0.02     0.04    15.69     0  05:58        0.04
  6                    JUNCTION     0.00     0.00    15.68     0  05:58        0.00
  7                    JUNCTION     0.00     0.00    15.70     0  00:00        0.00
  8                    JUNCTION     0.00     0.00    16.14     0  05:58        0.00
  9                    JUNCTION     0.00     0.00    16.25     0  05:58        0.00
  10                   JUNCTION     0.04     0.10    16.43     0  05:58        0.10
  11                   JUNCTION     0.40     1.31    18.00     0  03:03        1.31
  12                   JUNCTION     0.00     0.00    16.95     0  00:00        0.00
  13                   JUNCTION     0.03     0.10    15.69     0  05:58        0.10
  14                   JUNCTION     0.02     0.09    15.62     0  05:58        0.09
  15                   JUNCTION     0.01     0.08    15.59     0  05:58        0.08
  16                   JUNCTION     0.79     2.57    18.00     0  03:03        2.57
  17                   JUNCTION     0.95     2.62    18.00     0  03:10        2.62
  18                   JUNCTION     0.03     0.13    15.46     0  05:58        0.13
  19                   JUNCTION     0.00     0.00    15.25     0  05:54        0.00
  20                   JUNCTION     0.00     0.00    15.07     0  05:58        0.00
  21                   JUNCTION     0.03     0.13    15.12     0  05:58        0.13
  22                   JUNCTION     0.00     0.00    15.10     0  05:58        0.00
  23                   JUNCTION     1.43     3.07    18.00     0  02:56        3.07
  24                   JUNCTION     0.03     0.09    15.45     0  05:58        0.09
  25                   JUNCTION     1.05     1.57    18.00     0  01:51        1.57
  26                   JUNCTION     0.26     1.05    18.00     0  03:15        1.05
  27                   JUNCTION     1.47     2.59    18.00     0  02:50        2.59
  28                   JUNCTION     0.03     0.09    16.33     0  05:58        0.09
  29                   JUNCTION     1.06     2.11    18.00     0  02:50        2.11
  30                   JUNCTION     0.58     1.34    18.00     0  02:50        1.34
  31                   JUNCTION     0.73     1.66    18.00     0  02:50        1.66
  32                   JUNCTION     0.61     1.46    18.00     0  02:50        1.46
  33                   JUNCTION     0.52     1.27    18.00     0  02:50        1.27
  34                   JUNCTION     0.41     1.05    18.00     0  02:50        1.05
  35                   JUNCTION     0.43     1.51    18.00     0  03:04        1.51
  36                   JUNCTION     0.01     0.05    16.36     0  05:58        0.05
  37                   JUNCTION     0.49     1.90    18.00     0  03:15        1.90
  38                   JUNCTION     0.02     0.19    16.41     0  05:58        0.19
  39                   JUNCTION     0.02     0.05    16.59     0  05:58        0.05
  40                   JUNCTION     0.37     1.32    18.00     0  03:05        1.32
  41                   JUNCTION     0.00     0.00    16.95     0  00:00        0.00
  42                   JUNCTION     0.00     0.00    16.95     0  00:00        0.00
  43                   JUNCTION     0.00     0.00    16.95     0  00:00        0.00
  44                   JUNCTION     0.00     0.00    16.95     0  00:00        0.00
  45                   JUNCTION     0.00     0.00    16.95     0  00:00        0.00
  46                   JUNCTION     0.00     0.00    16.95     0  00:00        0.00
  49                   JUNCTION     0.89     1.15    18.00     0  01:17        1.15
  50                   JUNCTION     0.33     1.20    18.00     0  03:01        1.20
  51                   JUNCTION     0.83     1.60    18.00     0  02:34        1.60
  52                   JUNCTION     0.69     1.60    18.00     0  02:58        1.60
  53                   JUNCTION     0.71     1.15    18.00     0  01:47        1.15
  54                   JUNCTION     0.38     1.20    18.00     0  03:03        1.20
  55                   JUNCTION     0.35     1.20    18.00     0  03:10        1.20
  56                   JUNCTION     1.11     1.60    18.00     0  01:35        1.60
  57                   JUNCTION     0.90     1.40    18.00     0  01:51        1.40
  58                   JUNCTION     0.44     1.20    18.00     0  02:56        1.20
  59                   JUNCTION     0.36     1.33    18.00     0  03:12        1.33
  60                   JUNCTION     0.73     1.20    18.00     0  01:51        1.20
  61                   JUNCTION     0.49     1.15    18.00     0  02:50        1.15
  62                   JUNCTION     0.50     1.20    18.00     0  02:50        1.20
  63                   JUNCTION     0.28     1.05    18.00     0  03:14        1.05
  64                   JUNCTION     0.34     1.15    18.00     0  03:04        1.15
  65                   JUNCTION     0.87     1.33    18.00     0  01:48        1.33
  66                   JUNCTION     0.33     1.15    18.00     0  03:05        1.15
  47                   OUTFALL      0.00     0.01    14.92     0  02:57        0.01
  48                   OUTFALL      0.00     0.00    16.09     0  03:16        0.00
  
  
  *******************
  Node Inflow Summary
  *******************
  
  -------------------------------------------------------------------------------------------------
                                  Maximum  Maximum                  Lateral       Total        Flow
                                  Lateral    Total  Time of Max      Inflow      Inflow     Balance
                                   Inflow   Inflow   Occurrence      Volume      Volume       Error
  Node                 Type           LPS      LPS  days hr:min    10^6 ltr    10^6 ltr     Percent
  -------------------------------------------------------------------------------------------------
  1                    JUNCTION      0.00     0.00     0  00:10           0    7.54e-07       0.754 ltr
  2                    JUNCTION      0.00     0.07     0  05:58           0     0.00113    1130.513 ltr
  3                    JUNCTION      0.00     4.85     0  01:22           0      0.0235     143.348
  4                    JUNCTION      0.00    27.67     0  01:04           0      0.0195      98.159
  5                    JUNCTION      0.00     0.02     0  01:17           0     0.00044     437.654 ltr
  6                    JUNCTION      0.00     0.00     0  03:15           0    3.58e-07       0.358 ltr
  7                    JUNCTION      0.00     0.00     0  00:00           0           0       0.000 ltr
  8                    JUNCTION      0.00     0.00     0  00:07           0    1.66e-07       0.166 ltr
  9                    JUNCTION      0.00     0.01     0  00:03           0    4.34e-06       4.175 ltr
  10                   JUNCTION      0.00     0.25     0  02:58           0     0.00299    2983.892 ltr
  11                   JUNCTION      0.00   232.18     0  03:03           0       0.121      12.861
  12                   JUNCTION      0.00     0.00     0  00:00           0           0       0.000 ltr
  13                   JUNCTION      0.00     0.21     0  02:34           0     0.00284    2825.297 ltr
  14                   JUNCTION      0.00     0.13     0  02:58           0     0.00154    1533.664 ltr
  15                   JUNCTION      0.00     0.31     0  05:58           0     0.00319    3189.855 ltr
  16                   JUNCTION      0.00   232.51     0  03:03           0       0.107     160.425
  17                   JUNCTION      0.00    53.60     0  03:04           0      0.0903     196.759
  18                   JUNCTION      0.00     0.49     0  05:58           0     0.00549    5480.922 ltr
  19                   JUNCTION      0.00     0.00     0  00:03           0     5.3e-06      -0.615 ltr
  20                   JUNCTION      0.00     0.03     0  04:35           0    6.15e-06       6.147 ltr
  21                   JUNCTION      0.00     0.45     0  05:58           0     0.00559    5585.736 ltr
  22                   JUNCTION      0.00     0.00     0  00:34           0    3.27e-06       3.182 ltr
  23                   JUNCTION      0.00    29.89     0  02:55           0      0.0954     154.245
  24                   JUNCTION      0.00     0.23     0  05:58           0     0.00333    3330.272 ltr
  25                   JUNCTION      0.00     6.25     0  01:13           0      0.0364     146.684
  26                   JUNCTION      0.00    21.86     0  03:13           0     0.00754      26.952
  27                   JUNCTION      0.00     9.42     0  02:05           0      0.0574     242.998
  28                   JUNCTION      0.00     0.17     0  05:58           0     0.00257    2573.628 ltr
  29                   JUNCTION      0.00    24.05     0  02:50           0        0.11      25.055
  30                   JUNCTION      0.00    35.14     0  02:49           0        0.13      15.747
  31                   JUNCTION      0.00    10.35     0  02:33           0       0.026      30.098
  32                   JUNCTION      0.00     9.26     0  02:33           0      0.0197      36.288
  33                   JUNCTION      0.00     8.08     0  02:33           0      0.0138      60.814
  34                   JUNCTION      0.00     7.03     0  02:33           0     0.00792      66.181
  35                   JUNCTION      0.00   152.52     0  03:04           0      0.0508      40.202
  36                   JUNCTION      0.00     0.04     0  03:04           0    0.000445     443.086 ltr
  37                   JUNCTION      0.00    71.52     0  03:10           0      0.0352     148.976
  38                   JUNCTION      0.00     0.27     0  05:58           0     0.00241    2412.273 ltr
  39                   JUNCTION      0.00     0.06     0  01:48           0    0.000906     905.372 ltr
  40                   JUNCTION      0.00   131.03     0  03:04           0      0.0435      25.366
  41                   JUNCTION      0.00     0.00     0  00:00           0           0       0.000 ltr
  42                   JUNCTION      0.00     0.00     0  00:00           0           0       0.000 ltr
  43                   JUNCTION      0.00     0.00     0  00:00           0           0       0.000 ltr
  44                   JUNCTION      0.00     0.00     0  00:00           0           0       0.000 ltr
  45                   JUNCTION      0.00     0.00     0  00:00           0           0       0.000 ltr
  46                   JUNCTION      0.00     0.00     0  00:00           0           0       0.000 ltr
  49                   JUNCTION    156.65   156.65     0  03:03       0.452       0.454      -0.316
  50                   JUNCTION     68.84    68.84     0  03:06       0.183       0.184       0.534
  51                   JUNCTION     40.92    40.92     0  03:02      0.0843      0.0845      19.124
  52                   JUNCTION     56.87    56.87     0  03:03       0.152       0.153      31.064
  53                   JUNCTION    111.93   111.93     0  03:03       0.269        0.27       1.239
  54                   JUNCTION    250.16   250.16     0  03:05       0.439       0.441      -0.350
  55                   JUNCTION     53.34    53.34     0  03:03       0.136       0.136       5.188
  56                   JUNCTION    173.54   173.54     0  03:03       0.417       0.419       4.986
  57                   JUNCTION    104.96   104.96     0  03:03       0.261       0.263       6.668
  58                   JUNCTION     97.27    97.27     0  03:03       0.234       0.235       1.705
  59                   JUNCTION     76.72    76.72     0  03:16       0.118        0.12       3.690
  60                   JUNCTION    159.16   159.16     0  03:03       0.383       0.384       1.172
  61                   JUNCTION    135.05   135.05     0  03:03       0.325       0.326       1.086
  62                   JUNCTION    147.93   147.93     0  03:12       0.334       0.336       1.214
  63                   JUNCTION     71.45    71.45     0  03:10         0.1       0.101       2.911
  64                   JUNCTION    159.44   159.44     0  03:05       0.229        0.23       1.478
  65                   JUNCTION     60.95    60.95     0  03:03       0.161       0.162       4.067
  66                   JUNCTION    140.98   140.98     0  03:06       0.195       0.196       1.266
  47                   OUTFALL       0.00     0.71     0  02:57           0     0.00961       0.000
  48                   OUTFALL       0.00     0.31     0  03:16           0     0.00313       0.000
  
  
  **********************
  Node Surcharge Summary
  **********************
  
  Surcharging occurs when water rises above the top of the highest conduit.
  ---------------------------------------------------------------------
                                               Max. Height   Min. Depth
                                   Hours       Above Crown    Below Rim
  Node                 Type      Surcharged         Meters       Meters
  ---------------------------------------------------------------------
  3                    JUNCTION        4.43          0.994        0.000
  4                    JUNCTION        4.94          0.881        0.000
  11                   JUNCTION        2.97          0.912        0.000
  16                   JUNCTION        2.94          1.067        0.000
  17                   JUNCTION        2.85          0.970        0.000
  23                   JUNCTION        3.08          0.960        0.000
  25                   JUNCTION        4.27          0.889        0.000
  26                   JUNCTION        2.79          0.800        0.000
  27                   JUNCTION        3.79          1.274        0.000
  29                   JUNCTION        3.58          1.060        0.000
  30                   JUNCTION        3.47          0.880        0.000
  31                   JUNCTION        3.96          1.410        0.000
  32                   JUNCTION        3.71          1.207        0.000
  33                   JUNCTION        3.54          1.024        0.000
  34                   JUNCTION        3.44          0.800        0.000
  35                   JUNCTION        2.93          0.978        0.000
  37                   JUNCTION        2.79          0.947        0.000
  40                   JUNCTION        2.92          0.918        0.000
  49                   JUNCTION        4.93          0.800        0.000
  50                   JUNCTION        2.99          0.800        0.000
  51                   JUNCTION        3.45          0.800        0.000
  52                   JUNCTION        3.04          0.800        0.000
  53                   JUNCTION        4.34          0.800        0.000
  54                   JUNCTION        2.98          0.800        0.000
  55                   JUNCTION        2.83          0.800        0.000
  56                   JUNCTION        4.41          0.800        0.000
  57                   JUNCTION        4.16          0.800        0.000
  58                   JUNCTION        3.07          0.800        0.000
  59                   JUNCTION        2.80          0.800        0.000
  60                   JUNCTION        4.25          0.800        0.000
  61                   JUNCTION        3.45          0.800        0.000
  62                   JUNCTION        3.45          0.800        0.000
  63                   JUNCTION        2.85          0.800        0.000
  64                   JUNCTION        2.94          0.800        0.000
  65                   JUNCTION        4.20          0.800        0.000
  66                   JUNCTION        2.92          0.800        0.000
  
  
  *********************
  Node Flooding Summary
  *********************
  
  Flooding refers to all water that overflows a node, whether it ponds or not.
  --------------------------------------------------------------------------
                                                             Total   Maximum
                                 Maximum   Time of Max       Flood    Ponded
                        Hours       Rate    Occurrence      Volume     Depth
  Node                 Flooded       LPS   days hr:min    10^6 ltr    Meters
  --------------------------------------------------------------------------
  3                       4.21      2.34      0  01:47       0.008     0.000
  4                       4.71      2.35      0  01:17       0.009     0.000
  11                      0.18      6.44      0  03:04       0.000     0.000
  16                      2.18    204.30      0  03:03       0.037     0.000
  17                      2.83     11.76      0  03:11       0.025     0.000
  23                      3.06     16.82      0  02:57       0.022     0.000
  25                      4.15      3.44      0  01:51       0.013     0.000
  26                      1.53     15.99      0  03:15       0.006     0.000
  27                      3.00      5.36      0  02:50       0.012     0.000
  29                      1.12      9.06      0  02:50       0.004     0.000
  30                      0.36     10.97      0  02:50       0.003     0.000
  31                      0.99      1.81      0  02:50       0.000     0.000
  32                      0.85      2.35      0  02:50       0.001     0.000
  33                      0.30      2.46      0  02:50       0.001     0.000
  34                      3.16      1.89      0  02:50       0.005     0.000
  35                      2.93    142.32      0  03:04       0.035     0.000
  37                      0.08     10.12      0  03:15       0.001     0.000
  40                      2.92    115.36      0  03:05       0.033     0.000
  49                      4.71    156.05      0  03:03       0.433     0.000
  50                      2.26     68.77      0  03:06       0.182     0.000
  51                      3.44     40.66      0  03:02       0.068     0.000
  52                      3.04     56.73      0  03:03       0.115     0.000
  53                      4.21    111.16      0  03:03       0.242     0.000
  54                      2.94    203.32      0  03:07       0.318     0.000
  55                      2.33     20.56      0  03:10       0.039     0.000
  56                      4.41    173.15      0  03:03       0.394     0.000
  57                      4.15    104.83      0  03:03       0.244     0.000
  58                      3.06     88.35      0  03:03       0.134     0.000
  59                      2.24     76.52      0  03:16       0.115     0.000
  60                      4.15    157.95      0  03:03       0.341     0.000
  61                      3.17    130.91      0  03:03       0.235     0.000
  62                      3.17    145.85      0  03:12       0.285     0.000
  63                      2.17     40.22      0  03:17       0.063     0.000
  64                      2.92    125.80      0  03:07       0.174     0.000
  65                      4.19     60.88      0  03:03       0.154     0.000
  66                      2.92    108.06      0  03:08       0.149     0.000
  
  
  ***********************
  Outfall Loading Summary
  ***********************
  
  -----------------------------------------------------------
                         Flow       Avg       Max       Total
                         Freq      Flow      Flow      Volume
  Outfall Node           Pcnt       LPS       LPS    10^6 ltr
  -----------------------------------------------------------
  47                    74.07      0.47      0.71       0.010
  48                    26.83      0.30      0.31       0.003
  -----------------------------------------------------------
  System                50.45      0.76      1.02       0.013
  
  
  ********************
  Link Flow Summary
  ********************
  
  -----------------------------------------------------------------------------
                                 Maximum  Time of Max   Maximum    Max/    Max/
                                  |Flow|   Occurrence   |Veloc|    Full    Full
  Link                 Type          LPS  days hr:min     m/sec    Flow   Depth
  -----------------------------------------------------------------------------
  64                   CONDUIT      0.71     0  02:57      0.00    7.22    0.50
  30                   CONDUIT     29.89     0  02:55      0.73    0.25    1.00
  31                   CONDUIT      0.45     0  05:58      0.00    4.54    0.57
  27                   CONDUIT      0.03     0  04:35      0.00    0.29    0.07
  28                   CONDUIT      0.00     0  05:56      0.00    0.03    0.00
  63                   CONDUIT      0.00     0  00:00      0.00    0.00    0.00
  29                   CONDUIT      0.00     0  01:54      0.00    0.01    0.00
  24                   CONDUIT      0.00     0  00:03      0.00    0.05    0.06
  62                   CONDUIT      0.00     0  00:00      0.00    0.00    0.00
  32                   CONDUIT      0.00     0  00:34      0.00    0.03    0.06
  23                   CONDUIT      0.43     0  05:58      0.00    4.34    0.56
  26                   CONDUIT      0.06     0  01:51      0.01    2.09    0.50
  36                   CONDUIT      0.23     0  05:58      0.00    4.17    0.56
  21                   CONDUIT      0.57     0  03:03      0.00    5.73    1.00
  22                   CONDUIT     53.09     0  03:04      1.01    0.44    1.00
  37                   CONDUIT      0.07     0  05:58      0.00    2.47    0.58
  43                   CONDUIT      9.42     0  02:05      0.55    0.08    1.00
  19                   CONDUIT      0.31     0  05:58      0.01    3.14    0.54
  20                   CONDUIT    232.51     0  03:03      1.86    1.92    1.00
  38                   CONDUIT      0.10     0  01:51      0.00    3.34    0.50
  39                   CONDUIT      0.00     0  05:58      0.00    0.02    0.12
  44                   CONDUIT     24.05     0  02:50      0.69    0.20    1.00
  55                   CONDUIT     10.35     0  02:33      0.21    0.24    1.00
  9                    CONDUIT      0.00     0  00:03      0.00    0.03    0.08
  15                   CONDUIT    232.18     0  03:03      1.85    1.92    1.00
  33                   CONDUIT      6.25     0  01:13      0.46    0.05    1.00
  34                   CONDUIT      0.08     0  03:11      0.00    3.40    1.00
  49                   CONDUIT      0.04     0  03:04      0.01    1.89    0.50
  45                   CONDUIT     27.18     0  02:49      0.70    0.28    1.00
  46                   CONDUIT      8.38     0  02:50      0.54    0.07    1.00
  56                   CONDUIT      9.26     0  02:33      0.19    0.22    1.00
  10                   CONDUIT      0.13     0  02:58      0.00    2.42    0.50
  11                   CONDUIT      0.00     0  05:58      0.00    0.02    0.09
  48                   CONDUIT    152.52     0  03:04      1.65    1.55    1.00
  57                   CONDUIT      8.08     0  02:33      0.18    0.19    1.00
  12                   CONDUIT      0.00     0  05:51      0.00    0.00    0.07
  13                   CONDUIT      0.21     0  02:34      0.02    3.92    0.50
  47                   CONDUIT      7.03     0  02:33      0.15    0.17    1.00
  4                    CONDUIT      0.02     0  01:17      0.03    2.01    0.50
  5                    CONDUIT      0.00     0  03:15      0.00    0.01    0.02
  3                    CONDUIT     27.67     0  01:04      0.35    0.28    1.00
  6                    CONDUIT      0.00     0  00:00      0.00    0.00    0.00
  14                   CONDUIT      0.00     0  00:00      0.00    0.00    0.00
  7                    CONDUIT      0.00     0  00:00      0.00    0.00    0.00
  40                   CONDUIT      0.00     0  00:00      0.00    0.00    0.00
  59                   CONDUIT      0.00     0  00:00      0.00    0.00    0.00
  1                    CONDUIT      0.00     0  00:10      0.00    0.09    0.04
  18                   CONDUIT      0.00     0  00:07      0.00    0.05    0.00
  2                    CONDUIT      0.07     0  05:58      0.00    2.39    0.54
  58                   CONDUIT      0.00     0  00:00      0.00    0.00    0.00
  17                   CONDUIT      0.01     0  00:03      0.00    0.11    0.06
  60                   CONDUIT      0.00     0  00:00      0.00    0.00    0.00
  8                    CONDUIT      4.85     0  01:22      0.50    0.05    1.00
  16                   CONDUIT      0.09     0  02:58      0.09    7.13    0.50
  25                   CONDUIT      0.18     0  05:58      0.02    3.23    0.55
  61                   CONDUIT      0.00     0  00:00      0.00    0.00    0.00
  65                   CONDUIT      0.31     0  03:16      0.00    5.68    0.50
  42                   CONDUIT     21.86     0  03:13      0.45    0.52    1.00
  41                   CONDUIT     71.50     0  03:10      1.50    1.69    1.00
  51                   CONDUIT      0.04     0  03:21      0.02    2.93    1.00
  54                   CONDUIT      0.27     0  05:58      0.01    5.03    0.62
  50                   CONDUIT    131.03     0  03:04      1.38    1.33    1.00
  53                   CONDUIT      0.00     0  00:03      0.00    0.16    0.04
  52                   CONDUIT      0.06     0  01:48      0.04    2.59    0.50
  
  
  ***************************
  Flow Classification Summary
  ***************************
  
  -------------------------------------------------------------------------------------
                      Adjusted    ---------- Fraction of Time in Flow Class ---------- 
                       /Actual         Up    Down  Sub   Sup   Up    Down  Norm  Inlet 
  Conduit               Length    Dry  Dry   Dry   Crit  Crit  Crit  Crit  Ltd   Ctrl  
  -------------------------------------------------------------------------------------
  64                      1.00   0.00  0.00  0.00  1.00  0.00  0.00  0.00  0.00  0.00
  30                      1.00   0.00  0.00  0.00  0.38  0.00  0.00  0.62  0.02  0.00
  31                      1.00   0.00  0.01  0.00  0.99  0.00  0.00  0.00  0.07  0.00
  27                      1.00   0.01  0.56  0.00  0.43  0.00  0.00  0.00  0.35  0.00
  28                      1.00   0.01  0.00  0.00  0.00  0.00  0.00  0.99  0.00  0.00
  63                      1.00   1.00  0.00  0.00  0.00  0.00  0.00  0.00  0.00  0.00
  29                      1.00   0.08  0.00  0.00  0.92  0.00  0.00  0.00  0.00  0.00
  24                      1.00   0.00  0.00  0.00  1.00  0.00  0.00  0.00  0.00  0.00
  62                      1.00   1.00  0.00  0.00  0.00  0.00  0.00  0.00  0.00  0.00
  32                      1.00   0.01  0.00  0.00  0.00  0.00  0.00  0.99  0.00  0.00
  23                      1.00   0.00  0.00  0.00  0.99  0.00  0.00  0.00  0.01  0.00
  26                      1.00   0.00  0.00  0.00  0.00  0.00  0.00  1.00  0.00  0.00
  36                      1.00   0.01  0.00  0.00  0.99  0.00  0.00  0.00  0.00  0.00
  21                      1.00   0.01  0.10  0.00  0.90  0.00  0.00  0.00  0.00  0.00
  22                      1.00   0.00  0.00  0.00  0.28  0.00  0.00  0.72  0.01  0.00
  37                      1.00   0.01  0.00  0.00  0.72  0.00  0.00  0.27  0.03  0.00
  43                      1.00   0.01  0.00  0.00  0.81  0.00  0.00  0.18  0.02  0.00
  19                      1.00   0.01  0.00  0.00  0.99  0.00  0.00  0.00  0.36  0.00
  20                      1.00   0.63  0.00  0.00  0.29  0.00  0.00  0.08  0.00  0.00
  38                      1.00   0.00  0.00  0.00  0.00  0.00  0.00  1.00  0.00  0.00
  39                      1.00   0.01  0.66  0.00  0.34  0.00  0.00  0.00  0.51  0.00
  44                      1.00   0.00  0.00  0.00  0.52  0.00  0.00  0.47  0.02  0.00
  55                      1.00   0.25  0.14  0.00  0.61  0.00  0.00  0.00  0.00  0.00
  9                       1.00   0.00  0.00  0.00  1.00  0.00  0.00  0.00  0.00  0.00
  15                      1.00   0.62  0.00  0.00  0.36  0.01  0.00  0.00  0.00  0.00
  33                      1.00   0.00  0.00  0.00  0.87  0.00  0.00  0.13  0.07  0.00
  34                      1.00   0.09  0.04  0.00  0.87  0.00  0.00  0.00  0.00  0.00
  49                      1.00   0.66  0.00  0.00  0.00  0.00  0.00  0.34  0.00  0.00
  45                      1.00   0.00  0.00  0.00  0.49  0.00  0.00  0.51  0.03  0.00
  46                      1.00   0.00  0.00  0.00  0.49  0.00  0.00  0.51  0.02  0.00
  56                      1.00   0.39  0.06  0.00  0.55  0.00  0.00  0.00  0.00  0.00
  10                      1.00   0.00  0.00  0.00  0.00  0.00  0.00  1.00  0.00  0.00
  11                      1.00   0.00  0.00  0.00  1.00  0.00  0.00  0.00  0.00  0.00
  48                      1.00   0.65  0.00  0.00  0.29  0.00  0.00  0.06  0.00  0.00
  57                      1.00   0.46  0.05  0.00  0.50  0.00  0.00  0.00  0.00  0.00
  12                      1.00   0.00  0.00  0.00  0.99  0.00  0.00  0.00  0.66  0.00
  13                      1.00   0.00  0.00  0.00  0.00  0.00  0.00  1.00  0.00  0.00
  47                      1.00   0.51  0.05  0.00  0.44  0.00  0.00  0.00  0.00  0.00
  4                       1.00   0.00  0.00  0.00  0.00  0.00  0.00  1.00  0.00  0.00
  5                       1.00   0.01  0.75  0.00  0.25  0.00  0.00  0.00  0.00  0.00
  3                       1.00   0.00  0.00  0.00  0.94  0.00  0.00  0.06  0.04  0.00
  6                       1.00   0.75  0.25  0.00  0.00  0.00  0.00  0.00  0.00  0.00
  14                      1.00   1.00  0.00  0.00  0.00  0.00  0.00  0.00  0.00  0.00
  7                       1.00   0.02  0.00  0.00  0.00  0.00  0.00  0.98  0.00  0.00
  40                      1.00   0.01  0.00  0.00  0.00  0.00  0.00  0.99  0.00  0.00
  59                      1.00   1.00  0.00  0.00  0.00  0.00  0.00  0.00  0.00  0.00
  1                       1.00   0.01  0.00  0.00  0.99  0.00  0.00  0.00  0.00  0.00
  18                      1.00   0.01  0.00  0.00  0.99  0.00  0.00  0.00  0.00  0.00
  2                       1.00   0.00  0.00  0.00  1.00  0.00  0.00  0.00  0.00  0.00
  58                      1.00   1.00  0.00  0.00  0.00  0.00  0.00  0.00  0.00  0.00
  17                      1.00   0.00  0.00  0.00  1.00  0.00  0.00  0.00  0.00  0.00
  60                      1.00   1.00  0.00  0.00  0.00  0.00  0.00  0.00  0.00  0.00
  8                       1.00   0.00  0.00  0.00  0.82  0.00  0.00  0.18  0.07  0.00
  16                      1.00   0.65  0.00  0.00  0.00  0.00  0.00  0.35  0.00  0.00
  25                      1.00   0.00  0.00  0.00  0.67  0.00  0.00  0.33  0.00  0.00
  61                      1.00   1.00  0.00  0.00  0.00  0.00  0.00  0.00  0.00  0.00
  65                      1.00   0.61  0.00  0.00  0.39  0.00  0.00  0.00  0.00  0.00
  42                      1.00   0.74  0.00  0.00  0.25  0.00  0.00  0.00  0.00  0.00
  41                      1.00   0.65  0.00  0.00  0.25  0.00  0.00  0.09  0.00  0.00
  51                      1.00   0.66  0.00  0.00  0.27  0.00  0.00  0.08  0.00  0.00
  54                      1.00   0.01  0.00  0.00  0.31  0.00  0.00  0.68  0.00  0.00
  50                      1.00   0.65  0.00  0.00  0.28  0.00  0.00  0.06  0.00  0.00
  53                      1.00   0.00  0.00  0.00  0.00  0.00  0.00  1.00  0.00  0.00
  52                      1.00   0.00  0.00  0.00  0.00  0.00  0.00  1.00  0.00  0.00
  
  
  *************************
  Conduit Surcharge Summary
  *************************
  
  ----------------------------------------------------------------------------
                                                           Hours        Hours 
                         --------- Hours Full --------   Above Full   Capacity
  Conduit                Both Ends  Upstream  Dnstream   Normal Flow   Limited
  ----------------------------------------------------------------------------
  64                          0.01      3.71      0.01      4.34         0.01
  30                          3.07      3.07      3.08      0.01         0.01
  31                          0.01      0.01      3.71      4.05         0.01
  23                          0.01      2.99      0.01      3.20         0.01
  26                          0.01      4.16      0.01      4.28         0.01
  36                          0.01      4.56      0.01      4.87         0.01
  21                          2.97      2.97      2.99      0.36         0.13
  22                          2.83      2.83      2.85      0.01         0.01
  37                          0.01      0.01      3.79      3.81         0.01
  43                          4.43      4.43      4.56      0.01         0.01
  19                          0.01      0.01      2.97      3.03         0.01
  20                          2.94      2.97      2.94      0.05         0.01
  38                          0.01      4.40      0.01      4.77         0.01
  44                          3.49      3.49      3.58      0.01         0.01
  55                          3.96      3.96      4.37      0.01         0.01
  15                          2.97      2.98      2.97      0.07         0.03
  33                          4.25      4.25      4.40      0.01         0.01
  34                          2.80      2.80      4.27      1.51         0.01
  49                          0.01      2.93      0.01      2.93         0.01
  45                          3.45      3.45      3.49      0.01         0.01
  46                          3.45      3.45      3.47      0.01         0.01
  56                          3.71      3.71      3.96      0.01         0.01
  10                          0.01      3.04      0.01      3.17         0.01
  48                          2.93      2.94      2.93      0.02         0.01
  57                          3.54      3.54      3.71      0.01         0.01
  13                          0.01      3.45      0.01      3.93         0.01
  47                          3.44      3.44      3.54      0.01         0.01
  4                           0.01      4.94      0.01      4.97         0.01
  3                           4.93      4.93      4.94      0.01         0.01
  2                           0.01      4.43      0.01      4.59         0.01
  8                           4.34      4.34      4.43      0.01         0.01
  16                          0.01      2.99      0.01      3.09         0.01
  25                          0.01      4.41      0.01      4.54         0.01
  65                          0.01      2.81      0.01      2.84         0.01
  42                          2.79      2.79      2.79      0.01         0.01
  41                          2.80      2.85      2.80      0.07         0.02
  51                          2.81      2.92      2.81      0.19         0.03
  54                          0.01      0.01      2.79      2.82         0.01
  50                          2.92      2.92      2.92      0.02         0.01
  52                          0.01      4.20      0.01      4.39         0.01
  

  Analysis begun on:  Thu Jun 27 17:22:27 2024
  Analysis ended on:  Thu Jun 27 17:22:27 2024
  Total elapsed time: < 1 sec