
  EPA STORM WATER MANAGEMENT MODEL - VERSION 5.1 (Build 5.1.015)
  --------------------------------------------------------------

  
  *********************************************************
  NOTE: The summary statistics displayed in this report are
  based on results found at every computational time step,  
  not just on results from each reporting time step.
  *********************************************************
  
  ****************
  Analysis Options
  ****************
  Flow Units ............... LPS
  Process Models:
    Rainfall/Runoff ........ YES
    RDII ................... NO
    Snowmelt ............... NO
    Groundwater ............ NO
    Flow Routing ........... YES
    Ponding Allowed ........ YES
    Water Quality .......... NO
  Infiltration Method ...... HORTON
  Flow Routing Method ...... DYNWAVE
  Surcharge Method ......... EXTRAN
  Starting Date ............ 10/12/2020 00:00:00
  Ending Date .............. 10/12/2020 06:00:00
  Antecedent Dry Days ...... 0.0
  Report Time Step ......... 00:01:00
  Wet Time Step ............ 00:01:00
  Dry Time Step ............ 00:30:00
  Routing Time Step ........ 60.00 sec
  Variable Time Step ....... YES
  Maximum Trials ........... 8
  Number of Threads ........ 1
  Head Tolerance ........... 0.001500 m
  
  
  **************************        Volume         Depth
  Runoff Quantity Continuity     hectare-m            mm
  **************************     ---------       -------
  Total Precipitation ......         0.831       120.663
  Evaporation Loss .........         0.000         0.000
  Infiltration Loss ........         0.259        37.585
  Surface Runoff ...........         0.547        79.462
  Final Storage ............         0.025         3.688
  Continuity Error (%) .....        -0.059
  
  
  **************************        Volume        Volume
  Flow Routing Continuity        hectare-m      10^6 ltr
  **************************     ---------     ---------
  Dry Weather Inflow .......         0.000         0.000
  Wet Weather Inflow .......         0.552         5.518
  Groundwater Inflow .......         0.000         0.000
  RDII Inflow ..............         0.000         0.000
  External Inflow ..........         0.000         0.000
  External Outflow .........         0.001         0.015
  Flooding Loss ............         0.496         4.964
  Evaporation Loss .........         0.000         0.000
  Exfiltration Loss ........         0.000         0.000
  Initial Stored Volume ....         0.000         0.000
  Final Stored Volume ......         0.039         0.387
  Continuity Error (%) .....         2.758
  
  
  *************************
  Highest Continuity Errors
  *************************
  Node 38 (100.00%)
  Node 28 (100.00%)
  Node 15 (100.00%)
  Node 20 (99.99%)
  Node 2 (99.91%)
  
  
  ***************************
  Time-Step Critical Elements
  ***************************
  Link 3 (26.81%)
  Link 46 (25.52%)
  Link 43 (12.52%)
  Link 30 (5.14%)
  Link 8 (2.25%)
  
  
  ********************************
  Highest Flow Instability Indexes
  ********************************
  Link 43 (19)
  Link 55 (13)
  Link 56 (9)
  Link 57 (7)
  Link 44 (6)
  
  
  *************************
  Routing Time Step Summary
  *************************
  Minimum Time Step           :     2.17 sec
  Average Time Step           :    30.40 sec
  Maximum Time Step           :    60.00 sec
  Percent in Steady State     :    12.32
  Average Iterations per Step :     3.76
  Percent Not Converging      :    20.71
  Time Step Frequencies       :
     60.000 - 23.031 sec      :    43.41 %
     23.031 -  8.841 sec      :    54.66 %
      8.841 -  3.393 sec      :     1.77 %
      3.393 -  1.303 sec      :     0.16 %
      1.303 -  0.500 sec      :     0.00 %
  
  
  ***************************
  Subcatchment Runoff Summary
  ***************************
  
  ------------------------------------------------------------------------------------------------------------------------------
                            Total      Total      Total      Total     Imperv       Perv      Total       Total     Peak  Runoff
                           Precip      Runon       Evap      Infil     Runoff     Runoff     Runoff      Runoff   Runoff   Coeff
  Subcatchment                 mm         mm         mm         mm         mm         mm         mm    10^6 ltr      LPS
  ------------------------------------------------------------------------------------------------------------------------------
  67                       120.66       0.00       0.00      56.79     104.79      18.34      60.26        0.33   213.42   0.499
  68                       120.66       0.00       0.00      23.19      81.91      12.43      94.34        0.98   427.02   0.782
  69                       120.66       0.00       0.00      51.38     102.55       7.76      66.36        0.13    76.07   0.550
  70                       120.66       0.00       0.00      46.24     104.87      10.88      70.81        0.20   108.32   0.587
  71                       120.66       0.00       0.00      80.76     103.83      36.34      36.34        0.09    90.79   0.301
  72                       120.66       0.00       0.00       3.87     110.70       2.16     112.86        0.62   259.58   0.935
  73                       120.66       0.00       0.00      47.04     104.51      10.31      70.03        0.19   101.02   0.580
  74                       120.66       0.00       0.00      69.49     106.27      47.48      47.48        0.18   150.90   0.394
  75                       120.66       0.00       0.00      63.40     101.99      13.00      53.80        0.20   134.26   0.446
  76                       120.66       0.00       0.00       3.87     110.70       2.16     112.86        0.23    97.27   0.935
  77                       120.66       0.00       0.00       3.87     110.70       2.16     112.86        0.46   190.22   0.935
  78                       120.66       0.00       0.00      89.36     101.03      27.89      27.89        0.09   118.56   0.231
  79                       120.66       0.00       0.00      75.96     105.01      41.08      41.08        0.12   113.34   0.340
  80                       120.66       0.00       0.00      28.53     107.98       9.82      88.35        0.53   251.63   0.732
  81                       120.66       0.00       0.00       3.87     110.70       2.16     112.86        0.27   113.86   0.935
  82                       120.66       0.00       0.00       3.87     110.70       2.16     112.86        0.41   169.45   0.935
  83                       120.66       0.00       0.00      86.47      33.33      30.66      30.66        0.08    34.36   0.254
  84                       120.66       0.00       0.00       3.87     110.70       2.16     112.86        0.37   154.70   0.935
  

  ***********************
  LID Performance Summary
  ***********************

  --------------------------------------------------------------------------------------------------------------------
                                         Total      Evap     Infil   Surface    Drain    Initial     Final  Continuity
                                        Inflow      Loss      Loss   Outflow   Outflow   Storage   Storage       Error
  Subcatchment      LID Control             mm        mm        mm        mm        mm        mm        mm           %
  --------------------------------------------------------------------------------------------------------------------
  67                2                  1280.66      0.00    980.37    300.37      0.00      0.00      0.00       -0.01
  69                2                   673.27      0.00    601.26     72.17      0.00      0.00      0.00       -0.02
  70                2                   961.73      0.00    796.80    165.05      0.00      0.00      0.00       -0.01
  71                2                  1769.47      0.00   1224.94    544.54      0.00      0.00      0.00       -0.00
  73                2                   909.85      0.00    764.59    145.39      0.00      0.00      0.00       -0.01
  74                2                  2737.04      0.00   1619.38   1117.68      0.00      0.00      0.00       -0.00
  75                2                   887.87      0.00    750.17    137.72      0.00      0.00      0.00       -0.00
  78                2                  1261.31      0.00    969.13    292.20      0.00      0.00      0.00       -0.00
  79                2                  2132.59      0.00   1385.17    747.43      0.00      0.00      0.00       -0.00
  80                2                  1299.18      0.00    990.81    308.38      0.00      0.00      0.00       -0.00
  83                2                   691.93      0.00    608.67     83.43      0.00      0.00      0.00       -0.02
  
  ******************
  Node Depth Summary
  ******************
  
  ---------------------------------------------------------------------------------
                                 Average  Maximum  Maximum  Time of Max    Reported
                                   Depth    Depth      HGL   Occurrence   Max Depth
  Node                 Type       Meters   Meters   Meters  days hr:min      Meters
  ---------------------------------------------------------------------------------
  1                    JUNCTION     0.00     0.00    16.20     0  03:17        0.00
  2                    JUNCTION     0.01     0.04    16.36     0  05:52        0.04
  3                    JUNCTION     0.44     1.59    18.00     0  03:03        1.59
  4                    JUNCTION     0.97     1.28    18.00     0  01:27        1.28
  5                    JUNCTION     0.01     0.03    15.69     0  05:52        0.03
  6                    JUNCTION     0.00     0.00    15.68     0  03:39        0.00
  7                    JUNCTION     0.00     0.00    15.70     0  05:52        0.00
  8                    JUNCTION     0.00     0.00    16.14     0  05:52        0.00
  9                    JUNCTION     0.00     0.00    16.25     0  05:52        0.00
  10                   JUNCTION     0.03     0.08    16.41     0  05:52        0.08
  11                   JUNCTION     0.57     1.31    18.00     0  02:28        1.31
  12                   JUNCTION     0.00     0.00    16.95     0  00:00        0.00
  13                   JUNCTION     0.03     0.11    15.69     0  05:52        0.11
  14                   JUNCTION     0.02     0.09    15.63     0  05:52        0.09
  15                   JUNCTION     0.03     0.11    15.62     0  05:52        0.11
  16                   JUNCTION     1.37     2.57    18.00     0  02:28        2.57
  17                   JUNCTION     0.97     2.62    18.00     0  03:02        2.62
  18                   JUNCTION     0.03     0.13    15.46     0  05:52        0.13
  19                   JUNCTION     0.00     0.00    15.25     0  05:28        0.00
  20                   JUNCTION     0.00     0.00    15.07     0  05:52        0.00
  21                   JUNCTION     0.03     0.13    15.12     0  05:52        0.13
  22                   JUNCTION     0.00     0.00    15.10     0  05:52        0.00
  23                   JUNCTION     1.32     3.07    18.00     0  02:58        3.07
  24                   JUNCTION     0.03     0.09    15.45     0  05:52        0.09
  25                   JUNCTION     0.44     1.57    18.00     0  03:04        1.57
  26                   JUNCTION     0.54     1.05    18.00     0  02:03        1.05
  27                   JUNCTION     1.39     2.59    18.00     0  02:51        2.59
  28                   JUNCTION     0.01     0.06    16.30     0  05:52        0.06
  29                   JUNCTION     0.97     2.11    18.00     0  02:51        2.11
  30                   JUNCTION     0.51     1.34    18.00     0  02:51        1.34
  31                   JUNCTION     0.64     1.66    18.00     0  02:51        1.66
  32                   JUNCTION     0.53     1.46    18.00     0  02:51        1.46
  33                   JUNCTION     0.44     1.27    18.00     0  02:51        1.27
  34                   JUNCTION     0.34     1.05    18.00     0  02:51        1.05
  35                   JUNCTION     1.02     1.51    18.00     0  01:40        1.51
  36                   JUNCTION     0.03     0.08    16.38     0  05:52        0.08
  37                   JUNCTION     1.22     1.90    18.00     0  02:03        1.90
  38                   JUNCTION     0.09     0.27    16.49     0  05:52        0.27
  39                   JUNCTION     0.01     0.05    16.59     0  05:52        0.05
  40                   JUNCTION     1.00     1.32    18.00     0  01:22        1.32
  41                   JUNCTION     0.00     0.00    16.95     0  00:00        0.00
  42                   JUNCTION     0.00     0.00    16.95     0  00:00        0.00
  43                   JUNCTION     0.00     0.00    16.95     0  00:00        0.00
  44                   JUNCTION     0.00     0.00    16.95     0  00:00        0.00
  45                   JUNCTION     0.00     0.00    16.95     0  00:00        0.00
  46                   JUNCTION     0.00     0.00    16.95     0  00:00        0.00
  49                   JUNCTION     0.85     1.15    18.00     0  01:27        1.15
  50                   JUNCTION     1.11     1.20    18.00     0  00:36        1.20
  51                   JUNCTION     0.90     1.60    18.00     0  02:15        1.60
  52                   JUNCTION     0.69     1.60    18.00     0  02:48        1.60
  53                   JUNCTION     0.31     1.15    18.00     0  03:02        1.15
  54                   JUNCTION     0.52     1.20    18.00     0  02:28        1.20
  55                   JUNCTION     0.36     1.20    18.00     0  03:02        1.20
  56                   JUNCTION     0.35     1.60    18.00     0  02:56        1.60
  57                   JUNCTION     0.76     1.40    18.00     0  02:15        1.40
  58                   JUNCTION     0.39     1.20    18.00     0  02:58        1.20
  59                   JUNCTION     1.08     1.33    18.00     0  01:09        1.33
  60                   JUNCTION     0.32     1.20    18.00     0  03:04        1.20
  61                   JUNCTION     0.39     1.15    18.00     0  02:51        1.15
  62                   JUNCTION     0.45     1.20    18.00     0  02:51        1.20
  63                   JUNCTION     0.56     1.05    18.00     0  02:03        1.05
  64                   JUNCTION     0.72     1.15    18.00     0  01:40        1.15
  65                   JUNCTION     0.32     1.33    18.00     0  03:06        1.33
  66                   JUNCTION     0.85     1.15    18.00     0  01:22        1.15
  47                   OUTFALL      0.00     0.01    14.92     0  02:58        0.01
  48                   OUTFALL      0.00     0.00    16.09     0  02:03        0.00
  
  
  *******************
  Node Inflow Summary
  *******************
  
  -------------------------------------------------------------------------------------------------
                                  Maximum  Maximum                  Lateral       Total        Flow
                                  Lateral    Total  Time of Max      Inflow      Inflow     Balance
                                   Inflow   Inflow   Occurrence      Volume      Volume       Error
  Node                 Type           LPS      LPS  days hr:min    10^6 ltr    10^6 ltr     Percent
  -------------------------------------------------------------------------------------------------
  1                    JUNCTION      0.00     0.00     0  02:53           0    9.33e-07      -2.722 ltr
  2                    JUNCTION      0.00     1.22     0  02:58           0     0.00105    1044.832 ltr
  3                    JUNCTION      0.00    58.26     0  03:02           0      0.0214     116.180
  4                    JUNCTION      0.00     3.22     0  01:15           0      0.0161      94.425
  5                    JUNCTION      0.00     0.05     0  03:39           0     0.00043     427.179 ltr
  6                    JUNCTION      0.00     0.03     0  03:38           0    2.02e-06       0.320 ltr
  7                    JUNCTION      0.00     0.00     0  05:52           0    3.65e-06       3.480 ltr
  8                    JUNCTION      0.00     0.00     0  00:03           0    1.04e-08       0.010 ltr
  9                    JUNCTION      0.00     0.00     0  00:03           0    3.13e-06       3.118 ltr
  10                   JUNCTION      0.00     0.19     0  04:10           0     0.00208    2073.632 ltr
  11                   JUNCTION      0.00    23.52     0  02:21           0       0.105      11.215
  12                   JUNCTION      0.00     0.00     0  00:00           0           0       0.000 ltr
  13                   JUNCTION      0.00     0.21     0  02:15           0     0.00305    3031.260 ltr
  14                   JUNCTION      0.00     0.13     0  05:52           0     0.00164    1637.006 ltr
  15                   JUNCTION      0.00     0.32     0  05:52           0     0.00451    4509.570 ltr
  16                   JUNCTION      0.00    20.25     0  02:13           0      0.0883     582.828
  17                   JUNCTION      0.00    69.65     0  03:01           0       0.089     180.652
  18                   JUNCTION      0.00     0.49     0  05:52           0     0.00575    5747.025 ltr
  19                   JUNCTION      0.00     0.00     0  00:03           0    7.48e-06      -1.706 ltr
  20                   JUNCTION      0.00     0.03     0  03:56           0    7.44e-06       7.440 ltr
  21                   JUNCTION      0.00     0.45     0  05:36           0     0.00565    5641.657 ltr
  22                   JUNCTION      0.00     0.00     0  00:10           0    3.97e-06       3.879 ltr
  23                   JUNCTION      0.00    25.14     0  02:51           0      0.0944     159.795
  24                   JUNCTION      0.00     0.23     0  05:52           0     0.00334    3340.994 ltr
  25                   JUNCTION      0.00    95.58     0  03:03           0      0.0271     118.363
  26                   JUNCTION      0.00     3.59     0  01:54           0     0.00381      92.748
  27                   JUNCTION      0.00     9.15     0  02:06           0      0.0558     271.370
  28                   JUNCTION      0.00     0.17     0  05:52           0     0.00194    1942.368 ltr
  29                   JUNCTION      0.00    28.48     0  02:51           0       0.107      26.005
  30                   JUNCTION      0.00    40.59     0  02:50           0       0.133      15.181
  31                   JUNCTION      0.00    11.19     0  02:35           0      0.0256      29.333
  32                   JUNCTION      0.00    10.05     0  02:35           0      0.0195      36.661
  33                   JUNCTION      0.00     8.70     0  02:35           0      0.0136      63.271
  34                   JUNCTION      0.00     7.50     0  02:35           0     0.00764      71.249
  35                   JUNCTION      0.00     7.33     0  01:21           0      0.0458      83.099
  36                   JUNCTION      0.00     0.04     0  05:52           0    0.000706     697.800 ltr
  37                   JUNCTION      0.00     6.56     0  01:49           0      0.0343     154.963
  38                   JUNCTION      0.00     0.30     0  05:52           0     0.00424    4237.865 ltr
  39                   JUNCTION      0.00     0.29     0  03:00           0    0.000667     664.227 ltr
  40                   JUNCTION      0.00     5.11     0  01:09           0      0.0289      63.978
  41                   JUNCTION      0.00     0.00     0  00:00           0           0       0.000 ltr
  42                   JUNCTION      0.00     0.00     0  00:00           0           0       0.000 ltr
  43                   JUNCTION      0.00     0.00     0  00:00           0           0       0.000 ltr
  44                   JUNCTION      0.00     0.00     0  00:00           0           0       0.000 ltr
  45                   JUNCTION      0.00     0.00     0  00:00           0           0       0.000 ltr
  46                   JUNCTION      0.00     0.00     0  00:00           0           0       0.000 ltr
  49                   JUNCTION    213.42   213.42     0  03:04       0.337       0.337      -0.115
  50                   JUNCTION    427.02   427.02     0  03:03       0.986       0.988      -0.314
  51                   JUNCTION     76.07    76.07     0  03:03       0.126       0.127      11.265
  52                   JUNCTION    108.32   108.32     0  03:04       0.201       0.201      22.187
  53                   JUNCTION     90.79    90.79     0  03:05      0.0881      0.0883       2.800
  54                   JUNCTION    259.58   259.58     0  03:03       0.627       0.628       0.004
  55                   JUNCTION    101.02   101.02     0  03:04       0.187       0.187       3.246
  56                   JUNCTION    150.90   150.90     0  03:05       0.178       0.178       6.026
  57                   JUNCTION    134.26   134.26     0  03:04       0.205       0.205       8.750
  58                   JUNCTION     97.27    97.27     0  03:03       0.235       0.235       2.586
  59                   JUNCTION    190.22   190.22     0  03:03        0.46        0.46       2.028
  60                   JUNCTION    118.56   118.56     0  03:04      0.0966      0.0966       8.197
  61                   JUNCTION    113.34   113.37     0  03:05        0.12       0.127       3.826
  62                   JUNCTION    251.63   251.63     0  03:04       0.534       0.535       0.827
  63                   JUNCTION    113.86   113.86     0  03:03       0.275       0.276       0.195
  64                   JUNCTION    169.45   169.45     0  03:03       0.409        0.41       0.352
  65                   JUNCTION     34.36    34.36     0  03:09      0.0793      0.0795       9.444
  66                   JUNCTION    154.70   154.70     0  03:03       0.374       0.374       0.210
  47                   OUTFALL       0.00     0.71     0  02:58           0      0.0096       0.000
  48                   OUTFALL       0.00     0.31     0  02:03           0       0.005       0.000
  
  
  **********************
  Node Surcharge Summary
  **********************
  
  Surcharging occurs when water rises above the top of the highest conduit.
  ---------------------------------------------------------------------
                                               Max. Height   Min. Depth
                                   Hours       Above Crown    Below Rim
  Node                 Type      Surcharged         Meters       Meters
  ---------------------------------------------------------------------
  3                    JUNCTION        2.96          0.994        0.000
  4                    JUNCTION        4.73          0.881        0.000
  11                   JUNCTION        3.58          0.912        0.000
  16                   JUNCTION        3.63          1.067        0.000
  17                   JUNCTION        2.98          0.970        0.000
  23                   JUNCTION        3.08          0.960        0.000
  25                   JUNCTION        2.95          0.889        0.000
  26                   JUNCTION        4.02          0.800        0.000
  27                   JUNCTION        3.76          1.274        0.000
  29                   JUNCTION        3.55          1.060        0.000
  30                   JUNCTION        3.44          0.880        0.000
  31                   JUNCTION        3.93          1.410        0.000
  32                   JUNCTION        3.68          1.207        0.000
  33                   JUNCTION        3.51          1.024        0.000
  34                   JUNCTION        3.42          0.800        0.000
  35                   JUNCTION        4.44          0.978        0.000
  37                   JUNCTION        4.10          0.947        0.000
  40                   JUNCTION        4.75          0.918        0.000
  49                   JUNCTION        4.72          0.800        0.000
  50                   JUNCTION        5.41          0.800        0.000
  51                   JUNCTION        3.76          0.800        0.000
  52                   JUNCTION        3.21          0.800        0.000
  53                   JUNCTION        2.96          0.800        0.000
  54                   JUNCTION        3.57          0.800        0.000
  55                   JUNCTION        2.97          0.800        0.000
  56                   JUNCTION        3.06          0.800        0.000
  57                   JUNCTION        3.76          0.800        0.000
  58                   JUNCTION        3.07          0.800        0.000
  59                   JUNCTION        4.84          0.800        0.000
  60                   JUNCTION        2.95          0.800        0.000
  61                   JUNCTION        3.43          0.800        0.000
  62                   JUNCTION        3.43          0.800        0.000
  63                   JUNCTION        4.02          0.800        0.000
  64                   JUNCTION        4.39          0.800        0.000
  65                   JUNCTION        2.91          0.800        0.000
  66                   JUNCTION        4.73          0.800        0.000
  
  
  *********************
  Node Flooding Summary
  *********************
  
  Flooding refers to all water that overflows a node, whether it ponds or not.
  --------------------------------------------------------------------------
                                                             Total   Maximum
                                 Maximum   Time of Max       Flood    Ponded
                        Hours       Rate    Occurrence      Volume     Depth
  Node                 Flooded       LPS   days hr:min    10^6 ltr    Meters
  --------------------------------------------------------------------------
  3                       1.15     11.46      0  03:03       0.008     0.000
  4                       4.55      1.70      0  01:27       0.008     0.000
  11                      1.28     10.99      0  02:28       0.006     0.000
  16                      1.33      4.77      0  02:28       0.006     0.000
  17                      2.96     18.54      0  03:02       0.027     0.000
  23                      3.04     16.61      0  02:58       0.021     0.000
  25                      1.15     15.77      0  03:05       0.011     0.000
  26                      1.62      2.76      0  02:03       0.002     0.000
  27                      2.57      6.75      0  02:51       0.011     0.000
  29                      0.51     10.75      0  02:51       0.003     0.000
  30                      0.17     10.97      0  02:51       0.001     0.000
  31                      0.56      1.84      0  02:51       0.000     0.000
  32                      0.67      2.50      0  02:51       0.001     0.000
  33                      0.27      2.72      0  02:51       0.001     0.000
  34                      3.14      2.22      0  02:51       0.004     0.000
  35                      4.33      3.31      0  01:40       0.024     0.000
  37                      0.41      2.61      0  02:03       0.000     0.000
  40                      4.64      2.51      0  01:22       0.017     0.000
  49                      4.55    211.18      0  03:05       0.318     0.000
  50                      5.41    425.58      0  03:03       0.984     0.000
  51                      3.75     75.61      0  03:03       0.109     0.000
  52                      3.20    107.49      0  03:04       0.161     0.000
  53                      0.59     81.51      0  03:05       0.063     0.000
  54                      3.54    256.94      0  03:03       0.520     0.000
  55                      2.96     86.34      0  03:05       0.093     0.000
  56                      1.24    149.68      0  03:05       0.164     0.000
  57                      3.75    132.49      0  03:04       0.185     0.000
  58                      3.04     87.55      0  03:03       0.134     0.000
  59                      4.84    189.74      0  03:03       0.448     0.000
  60                      0.48    106.36      0  03:04       0.063     0.000
  61                      3.15    112.78      0  03:05       0.121     0.000
  62                      3.15    245.14      0  03:04       0.394     0.000
  63                      3.96    113.06      0  03:03       0.239     0.000
  64                      4.33    167.59      0  03:03       0.360     0.000
  65                      2.38     34.21      0  03:10       0.072     0.000
  66                      4.64    153.41      0  03:03       0.342     0.000
  
  
  ***********************
  Outfall Loading Summary
  ***********************
  
  -----------------------------------------------------------
                         Flow       Avg       Max       Total
                         Freq      Flow      Flow      Volume
  Outfall Node           Pcnt       LPS       LPS    10^6 ltr
  -----------------------------------------------------------
  47                    74.85      0.43      0.71       0.010
  48                    85.63      0.24      0.31       0.005
  -----------------------------------------------------------
  System                80.24      0.67      1.02       0.015
  
  
  ********************
  Link Flow Summary
  ********************
  
  -----------------------------------------------------------------------------
                                 Maximum  Time of Max   Maximum    Max/    Max/
                                  |Flow|   Occurrence   |Veloc|    Full    Full
  Link                 Type          LPS  days hr:min     m/sec    Flow   Depth
  -----------------------------------------------------------------------------
  64                   CONDUIT      0.71     0  02:58      0.00    7.22    0.50
  30                   CONDUIT     25.14     0  02:51      0.73    0.21    1.00
  31                   CONDUIT      0.45     0  05:52      0.00    4.53    0.56
  27                   CONDUIT      0.03     0  03:56      0.00    0.29    0.07
  28                   CONDUIT      0.00     0  05:30      0.00    0.03    0.00
  63                   CONDUIT      0.00     0  00:00      0.00    0.00    0.00
  29                   CONDUIT      0.00     0  00:15      0.00    0.02    0.00
  24                   CONDUIT      0.00     0  00:03      0.00    0.04    0.06
  62                   CONDUIT      0.00     0  00:00      0.00    0.00    0.00
  32                   CONDUIT      0.00     0  00:10      0.00    0.04    0.06
  23                   CONDUIT      0.43     0  05:52      0.00    4.35    0.56
  26                   CONDUIT      0.06     0  02:15      0.01    2.08    0.50
  36                   CONDUIT      0.23     0  05:52      0.00    4.16    0.56
  21                   CONDUIT      0.66     0  02:39      0.00    6.72    1.00
  22                   CONDUIT     69.18     0  03:01      0.82    0.57    1.00
  37                   CONDUIT      0.07     0  05:52      0.00    2.32    0.55
  43                   CONDUIT      9.15     0  02:06      0.54    0.08    1.00
  19                   CONDUIT      0.32     0  05:52      0.00    3.27    0.55
  20                   CONDUIT     20.25     0  02:13      0.73    0.17    1.00
  38                   CONDUIT      0.10     0  03:04      0.00    3.34    0.50
  39                   CONDUIT      0.00     0  05:52      0.00    0.04    0.12
  44                   CONDUIT     28.48     0  02:51      0.69    0.24    1.00
  55                   CONDUIT     11.19     0  02:35      0.23    0.26    1.00
  9                    CONDUIT      0.00     0  00:03      0.00    0.04    0.10
  15                   CONDUIT     23.52     0  02:21      0.72    0.19    1.00
  33                   CONDUIT     95.50     0  03:03      0.99    0.79    1.00
  34                   CONDUIT      0.75     0  04:18      0.03   32.52    1.00
  49                   CONDUIT      0.04     0  05:52      0.00    1.89    0.51
  45                   CONDUIT      9.01     0  02:34      0.12    0.09    1.00
  46                   CONDUIT     40.59     0  02:50      0.74    0.34    1.00
  56                   CONDUIT     10.05     0  02:35      0.20    0.24    1.00
  10                   CONDUIT      0.13     0  02:48      0.01    2.37    0.50
  11                   CONDUIT      0.00     0  05:52      0.00    0.02    0.10
  48                   CONDUIT      7.33     0  01:21      0.56    0.07    1.00
  57                   CONDUIT      8.70     0  02:35      0.18    0.21    1.00
  12                   CONDUIT      0.03     0  05:15      0.00    0.29    0.07
  13                   CONDUIT      0.21     0  02:15      0.02    3.91    0.50
  47                   CONDUIT      7.50     0  02:35      0.16    0.18    1.00
  4                    CONDUIT      0.02     0  01:27      0.00    2.01    0.50
  5                    CONDUIT      0.03     0  03:38      0.01    0.29    0.02
  3                    CONDUIT      3.22     0  01:15      0.35    0.03    1.00
  6                    CONDUIT      0.00     0  03:19      0.00    0.03    0.00
  14                   CONDUIT      0.00     0  00:00      0.00    0.00    0.00
  7                    CONDUIT      0.00     0  05:52      0.00    0.13    0.00
  40                   CONDUIT      0.00     0  00:00      0.00    0.00    0.00
  59                   CONDUIT      0.00     0  00:00      0.00    0.00    0.00
  1                    CONDUIT      0.00     0  02:53      0.00    0.09    0.04
  18                   CONDUIT      0.00     0  00:03      0.00    0.00    0.00
  2                    CONDUIT      1.22     0  02:58      0.07   40.82    0.54
  58                   CONDUIT      0.00     0  00:00      0.00    0.00    0.00
  17                   CONDUIT      0.00     0  00:03      0.00    0.07    0.05
  60                   CONDUIT      0.00     0  00:00      0.00    0.00    0.00
  8                    CONDUIT     58.26     0  03:02      0.95    0.59    1.00
  16                   CONDUIT      0.04     0  00:09      0.08    3.07    0.50
  25                   CONDUIT      0.16     0  04:10      0.00    3.03    0.54
  61                   CONDUIT      0.00     0  00:00      0.00    0.00    0.00
  65                   CONDUIT      0.31     0  02:03      0.00    5.68    0.50
  42                   CONDUIT      3.59     0  01:54      0.09    0.08    1.00
  41                   CONDUIT      6.54     0  01:49      0.60    0.15    1.00
  51                   CONDUIT      0.04     0  02:51      0.01    3.28    1.00
  54                   CONDUIT      0.30     0  05:52      0.01    5.51    0.67
  50                   CONDUIT      5.11     0  01:09      0.44    0.05    1.00
  53                   CONDUIT      0.00     0  02:56      0.00    0.15    0.10
  52                   CONDUIT      0.29     0  03:00      0.12   12.65    0.50
  
  
  ***************************
  Flow Classification Summary
  ***************************
  
  -------------------------------------------------------------------------------------
                      Adjusted    ---------- Fraction of Time in Flow Class ---------- 
                       /Actual         Up    Down  Sub   Sup   Up    Down  Norm  Inlet 
  Conduit               Length    Dry  Dry   Dry   Crit  Crit  Crit  Crit  Ltd   Ctrl  
  -------------------------------------------------------------------------------------
  64                      1.00   0.00  0.00  0.00  1.00  0.00  0.00  0.00  0.00  0.00
  30                      1.00   0.00  0.00  0.00  0.31  0.00  0.00  0.68  0.02  0.00
  31                      1.00   0.00  0.07  0.00  0.93  0.00  0.00  0.00  0.00  0.00
  27                      1.00   0.03  0.00  0.00  0.97  0.00  0.00  0.00  0.56  0.00
  28                      1.00   0.01  0.00  0.00  0.00  0.00  0.00  0.99  0.00  0.00
  63                      1.00   1.00  0.00  0.00  0.00  0.00  0.00  0.00  0.00  0.00
  29                      1.00   0.02  0.00  0.00  0.98  0.00  0.00  0.00  0.00  0.00
  24                      1.00   0.00  0.00  0.00  1.00  0.00  0.00  0.00  0.00  0.00
  62                      1.00   1.00  0.00  0.00  0.00  0.00  0.00  0.00  0.00  0.00
  32                      1.00   0.02  0.00  0.00  0.00  0.00  0.00  0.98  0.00  0.00
  23                      1.00   0.00  0.00  0.00  0.99  0.00  0.00  0.00  0.00  0.00
  26                      1.00   0.00  0.00  0.00  0.00  0.00  0.00  1.00  0.00  0.00
  36                      1.00   0.01  0.00  0.00  0.99  0.00  0.00  0.00  0.00  0.00
  21                      1.00   0.01  0.00  0.00  0.99  0.00  0.00  0.00  0.02  0.00
  22                      1.00   0.00  0.00  0.00  0.29  0.00  0.00  0.71  0.01  0.00
  37                      1.00   0.01  0.00  0.00  0.72  0.00  0.00  0.28  0.03  0.00
  43                      1.00   0.01  0.00  0.00  0.84  0.00  0.00  0.16  0.02  0.00
  19                      1.00   0.01  0.00  0.00  0.99  0.00  0.00  0.00  0.09  0.00
  20                      1.00   0.00  0.00  0.00  0.49  0.00  0.00  0.51  0.02  0.00
  38                      1.00   0.00  0.00  0.00  0.00  0.00  0.00  1.00  0.00  0.00
  39                      1.00   0.01  0.00  0.00  0.99  0.00  0.00  0.00  0.00  0.00
  44                      1.00   0.00  0.00  0.00  0.48  0.00  0.00  0.51  0.02  0.00
  55                      1.00   0.24  0.16  0.00  0.60  0.00  0.00  0.00  0.00  0.00
  9                       1.00   0.00  0.00  0.00  1.00  0.00  0.00  0.00  0.31  0.00
  15                      1.00   0.00  0.00  0.00  1.00  0.00  0.00  0.00  0.19  0.00
  33                      1.00   0.70  0.00  0.00  0.27  0.00  0.00  0.03  0.00  0.00
  34                      1.00   0.00  0.00  0.00  0.28  0.00  0.00  0.72  0.00  0.00
  49                      1.00   0.00  0.00  0.00  0.19  0.00  0.00  0.80  0.00  0.00
  45                      1.00   0.10  0.48  0.00  0.41  0.00  0.00  0.00  0.00  0.00
  46                      1.00   0.00  0.00  0.00  0.42  0.00  0.00  0.58  0.01  0.00
  56                      1.00   0.40  0.09  0.00  0.51  0.00  0.00  0.00  0.00  0.00
  10                      1.00   0.00  0.00  0.00  0.00  0.00  0.00  1.00  0.00  0.00
  11                      1.00   0.00  0.00  0.00  1.00  0.00  0.00  0.00  0.00  0.00
  48                      1.00   0.00  0.00  0.00  0.84  0.00  0.00  0.16  0.06  0.00
  57                      1.00   0.49  0.07  0.00  0.45  0.00  0.00  0.00  0.00  0.00
  12                      1.00   0.00  0.01  0.00  0.99  0.00  0.00  0.00  0.83  0.00
  13                      1.00   0.00  0.00  0.00  0.00  0.00  0.00  1.00  0.00  0.00
  47                      1.00   0.56  0.06  0.00  0.38  0.00  0.00  0.00  0.00  0.00
  4                       1.00   0.00  0.00  0.00  0.00  0.00  0.00  1.00  0.00  0.00
  5                       1.00   0.01  0.74  0.00  0.24  0.00  0.00  0.00  0.06  0.00
  3                       1.00   0.00  0.00  0.00  0.93  0.00  0.00  0.07  0.04  0.00
  6                       1.00   0.76  0.00  0.00  0.24  0.00  0.00  0.00  0.28  0.00
  14                      1.00   1.00  0.00  0.00  0.00  0.00  0.00  0.00  0.00  0.00
  7                       1.00   0.70  0.00  0.00  0.00  0.00  0.00  0.30  0.00  0.00
  40                      1.00   1.00  0.00  0.00  0.00  0.00  0.00  0.00  0.00  0.00
  59                      1.00   1.00  0.00  0.00  0.00  0.00  0.00  0.00  0.00  0.00
  1                       1.00   0.70  0.00  0.00  0.30  0.00  0.00  0.00  0.00  0.00
  18                      1.00   0.00  0.00  0.00  1.00  0.00  0.00  0.00  0.00  0.00
  2                       1.00   0.70  0.00  0.00  0.30  0.00  0.00  0.00  0.00  0.00
  58                      1.00   1.00  0.00  0.00  0.00  0.00  0.00  0.00  0.00  0.00
  17                      1.00   0.00  0.00  0.00  1.00  0.00  0.00  0.00  0.00  0.00
  60                      1.00   1.00  0.00  0.00  0.00  0.00  0.00  0.00  0.00  0.00
  8                       1.00   0.69  0.00  0.00  0.28  0.00  0.00  0.03  0.00  0.00
  16                      1.00   0.00  0.00  0.00  0.00  0.00  0.00  1.00  0.00  0.00
  25                      1.00   0.16  0.51  0.00  0.32  0.00  0.00  0.00  0.01  0.00
  61                      1.00   1.00  0.00  0.00  0.00  0.00  0.00  0.00  0.00  0.00
  65                      1.00   0.01  0.00  0.00  0.99  0.00  0.00  0.00  0.00  0.00
  42                      1.00   0.33  0.08  0.00  0.59  0.00  0.00  0.00  0.00  0.00
  41                      1.00   0.00  0.00  0.00  0.68  0.00  0.00  0.32  0.06  0.00
  51                      1.00   0.00  0.00  0.00  0.84  0.00  0.00  0.16  0.00  0.00
  54                      1.00   0.05  0.01  0.00  0.94  0.00  0.00  0.00  0.00  0.00
  50                      1.00   0.00  0.00  0.00  0.91  0.00  0.00  0.09  0.06  0.00
  53                      1.00   0.71  0.00  0.00  0.20  0.00  0.00  0.10  0.28  0.00
  52                      1.00   0.71  0.00  0.00  0.00  0.00  0.00  0.29  0.00  0.00
  
  
  *************************
  Conduit Surcharge Summary
  *************************
  
  ----------------------------------------------------------------------------
                                                           Hours        Hours 
                         --------- Hours Full --------   Above Full   Capacity
  Conduit                Both Ends  Upstream  Dnstream   Normal Flow   Limited
  ----------------------------------------------------------------------------
  64                          0.01      3.72      0.01      4.34         0.01
  30                          3.07      3.07      3.08      0.01         0.01
  31                          0.01      0.01      3.72      4.05         0.01
  23                          0.01      3.18      0.01      3.46         0.01
  26                          0.01      3.76      0.01      3.90         0.01
  36                          0.01      4.54      0.01      4.86         0.01
  21                          3.18      4.05      3.18      1.57         0.21
  22                          2.97      2.97      2.98      0.01         0.01
  37                          0.01      0.01      3.76      3.77         0.01
  43                          4.42      4.42      4.54      0.01         0.01
  19                          0.01      0.01      4.05      4.25         0.01
  20                          3.58      3.58      3.63      0.01         0.01
  38                          0.01      2.95      0.01      2.96         0.01
  44                          3.47      3.47      3.55      0.01         0.01
  55                          3.93      3.93      4.35      0.01         0.01
  15                          3.57      3.57      3.58      0.01         0.01
  33                          2.95      2.95      2.95      0.01         0.01
  34                          2.95      4.84      2.95      2.07         0.01
  49                          0.01      4.44      0.01      4.50         0.01
  45                          3.43      3.43      3.47      0.01         0.01
  46                          3.43      3.43      3.44      0.01         0.01
  56                          3.68      3.68      3.93      0.01         0.01
  10                          0.01      3.21      0.01      3.41         0.01
  48                          4.39      4.39      4.44      0.01         0.01
  57                          3.51      3.51      3.68      0.01         0.01
  13                          0.01      3.76      0.01      4.22         0.01
  47                          3.42      3.42      3.51      0.01         0.01
  4                           0.01      4.73      0.01      4.78         0.01
  3                           4.72      4.72      4.73      0.01         0.01
  2                           0.01      2.96      0.01      3.11         0.01
  8                           2.96      2.96      2.96      0.01         0.01
  16                          0.01      5.41      0.01      5.63         0.01
  25                          0.01      3.06      0.01      3.10         0.01
  65                          0.01      4.37      0.01      4.91         0.01
  42                          4.02      4.02      4.10      0.01         0.01
  41                          4.02      4.02      4.24      0.01         0.01
  51                          4.37      4.75      4.37      1.10         0.40
  54                          0.01      0.01      4.21      4.62         0.01
  50                          4.73      4.73      4.75      0.01         0.01
  52                          0.01      2.91      0.01      3.07         0.01
  

  Analysis begun on:  Thu Jun 27 17:22:27 2024
  Analysis ended on:  Thu Jun 27 17:22:27 2024
  Total elapsed time: < 1 sec